 ****** HSPICE -- D-2010.03-SP1 32-BIT (May 26 2010) winnt ******               
  Copyright (C) 2010 Synopsys, Inc. All Rights Reserved.                        
  Unpublished-rights reserved under US copyright laws.
  This program is protected by law and is subject to the 
  terms and conditions of the license agreement from Synopsys.
  Use of this program is your acceptance to be bound by the 
  license agreement. HSPICE is the trademark of Synopsys, Inc.
  Input File: d:\amin\university\term 4\electronics principles & lab\dr.fakhar z
  lic:  
  lic: FLEXlm: v8.5b 
  lic: USER:   Amin                 HOSTNAME: DESKTOP-1VFM22V 
  lic: HOSTID: "708bcd0821f7 484520c021d1 00ff9d66de49 484520c021cd 484520c021ce
 "
  lic: Using FLEXlm license file: 
  lic: 27000@elena 
  lic: Checkout 1 hspice 
  lic: License/Maintenance for hspice will expire on 31-dec-2020/2007.9 
  lic: NODE LOCKED license on hostid "708bcd0821f7 484520c021d1 00ff9d66de49 484
 5
  lic:   
 Init: read install configuration file: C:\synopsys\Hspice_D-2010.03-SP1\meta.cfg
1****** HSPICE -- D-2010.03-SP1 32-BIT (May 26 2010) winnt ******               
 ******  
 #exp1simulation

  ******  bjt   model parameters tnom=  25.000 temp=  25.000 *****

 ************************************************************************
 *** bjt model parameters   model name:   0:mynpn    model type:npn   ***
 ************************************************************************

     names  values   units     names  values   units     names  values   units
     -----  ------   -----     -----  ------   -----     -----  ------   -----

   1*** basic dc parameters ***
    level=   1.00                bf= 150.00                br=   1.00         
      brs=   0.                bulk=  gnd                  is=   1.00f amps   
      iss=   0.    amps          nf=   1.00                nr=   1.00         
       ns=   1.00               ibe=   0.    amps         ibc=   0.    amps   
     subs=   1.00             expli=   0.    amps   

   2*** low current beta degradation effect parameters ***
      isc=   0.    amps         ise=   0.    amps          nc=   2.00         
       ne=   1.50         

   3*** base width modulation parameters ***
      vaf= 100.00  volts        var=   0.    volts  

   4*** high current beta degradation effect parameters ***
      ikf=   0.    amps         nkf= 500.00m              ikr=   0.    amps   

   5*** parasitic resistor parameters ***
      irb=   0.    amps          rb=   0.    ohms         rbm=   0.    ohms   
       re=   0.    ohms          rc=   0.    ohms         rcc=   0.    ohms   
       vo=   0.    volts      gamma=   0.           

   6*** junction capacitor parameters ***
     cbcp=   0.    farad       cbep=   0.    farad       ccsp=   0.    farad  
      cjc=   0.    farad        cje=   0.    farad        cjs=   0.    farad  
       fc= 500.00m              mjc= 330.00m              mje= 330.00m        
      mjs= 500.00m              vjc= 750.00m volts        vje= 750.00m volts  
      vjs= 750.00m volts       xcjc=   1.00               qco=   0.    coul   

   7*** transit time parameters ***
      itf=   0.    amps         ptf=   0.    deg k         tf=   0.    secs   
       tr=   0.    secs         vtf=   0.                 xtf=   0.           

   8*** temperature compensation parameters ***
     tlev=   0.               tlevc=   0.                tre1=   0.    /deg   
     tre2=   0.    /deg2       trb1=   0.    /deg        trc1=   0.    /deg   
     trb2=   0.    /deg2       trm1=   0.    /deg         xtb=   0.           
     trm2=   0.    /deg2        xti=   3.00               cte=   0.    /deg   
      ctc=   0.    /deg         cts=   0.    /deg        trc2=   0.    /deg2  
     tref=  25.00   deg c       bex=   2.42              bexv=   1.90         

   9*** noise parameters ***
       kf=   0.                  af=   1.00         
  **info** (d:\amin\university\term 4\electronics principles & lab\dr.fakhar zade\lab\exp1\exp1simulation.sp:11) DC voltage reset to initial transient source value              in source        0:vin                 new dc=  0.0000D+00
 
 **warning** To avoid producing hard-to-solve matrix equations, connect gdcpath from node        0:4                defined in subckt 0               
      
 *****************************************************************
 ******  option summary
 ******
 runlvl  = 3         bypass  = 2         
1****** HSPICE -- D-2010.03-SP1 32-BIT (May 26 2010) winnt ******               
 ******  
 #exp1simulation

  ******  operating point information tnom=  25.000 temp=  25.000 *****
 ***** operating point status is all       simulation time is     0.     
    node    =voltage      node    =voltage      node    =voltage

 +0:1       =   1.3140  0:2       =   2.0191  0:3       =   6.6053 
 +0:4       =   0.      0:5       =   0.      0:6       =   0.     
 +0:7       =   0.      0:100     =  10.0000 


 ****  voltage sources

 subckt                                   
 element  0:vcc      0:vin      0:vtest   
  volts     10.0000     0.         0.     
  current -967.7569u    0.         0.     
  power      9.6776m    0.         0.     

     total voltage source power dissipation=    9.6776m       watts



 **** resistors

 subckt                                                                    
 element  0:r1       0:r2       0:rc       0:re       0:rs       0:r3      
  r value   82.0000k   22.0000k    3.9000k    1.5000k   50.0000   150.0000 
  v drop     7.9809     2.0191     3.3947     1.3140     0.         0.     
  current   97.3275u   91.7791u  870.4293u  875.9777u    0.         0.     
  power    776.7574u  185.3151u    2.9548m    1.1510m    0.         0.     


 **** bipolar junction transistors


 subckt             
 element  0:q1      
 model    0:mynpn   
  ib         5.5484u
  ic       870.4293u
  vbe      705.1746m
  vce        5.2914 
  vbc       -4.5862 
  vs        -6.6053 
  power      4.6097m
  betad    156.8793 
  gm        33.8713m
  rpi        4.6305k
  rx         0.     
  ro       120.1547k
  cpi        0.     
  cmu        0.     
  cbx        0.     
  ccs        0.     
  betaac   156.8407 
  ft       5.390e+12



 ******  
 #exp1simulation

  ******  ac analysis tnom=  25.000 temp=  25.000 *****
x

        freq       rout    
                           
    1.00000k    160.6480   
    1.05925k    160.6478   
    1.12202k    160.6477   
    1.18850k    160.6476   
    1.25893k    160.6475   
    1.33352k    160.6474   
    1.41254k    160.6474   
    1.49624k    160.6473   
    1.58489k    160.6472   
    1.67880k    160.6472   
    1.77828k    160.6471   
    1.88365k    160.6471   
    1.99526k    160.6471   
    2.11349k    160.6470   
    2.23872k    160.6470   
    2.37137k    160.6470   
    2.51189k    160.6469   
    2.66073k    160.6469   
    2.81838k    160.6469   
    2.98538k    160.6469   
    3.16228k    160.6469   
    3.34965k    160.6469   
    3.54813k    160.6468   
    3.75837k    160.6468   
    3.98107k    160.6468   
    4.21697k    160.6468   
    4.46684k    160.6468   
    4.73151k    160.6468   
    5.01187k    160.6468   
    5.30884k    160.6468   
    5.62341k    160.6468   
    5.95662k    160.6468   
    6.30957k    160.6468   
    6.68344k    160.6468   
    7.07946k    160.6468   
    7.49894k    160.6468   
    7.94328k    160.6468   
    8.41395k    160.6468   
    8.91251k    160.6468   
    9.44061k    160.6468   
   10.00000k    160.6468   
   10.59254k    160.6468   
   11.22018k    160.6468   
   11.88502k    160.6468   
   12.58925k    160.6468   
   13.33521k    160.6468   
   14.12538k    160.6468   
   14.96236k    160.6468   
   15.84893k    160.6468   
   16.78804k    160.6468   
   17.78279k    160.6468   
   18.83649k    160.6468   
   19.95262k    160.6468   
   21.13489k    160.6468   
   22.38721k    160.6467   
   23.71374k    160.6468   
   25.11886k    160.6468   
   26.60725k    160.6468   
   28.18383k    160.6468   
   29.85383k    160.6467   
   31.62278k    160.6468   
   33.49654k    160.6468   
   35.48134k    160.6468   
   37.58374k    160.6468   
   39.81072k    160.6468   
   42.16965k    160.6468   
   44.66836k    160.6468   
   47.31513k    160.6468   
   50.11872k    160.6468   
   53.08844k    160.6468   
   56.23413k    160.6468   
   59.56621k    160.6468   
   63.09573k    160.6468   
   66.83439k    160.6468   
   70.79458k    160.6468   
   74.98942k    160.6468   
   79.43282k    160.6468   
   84.13951k    160.6468   
   89.12509k    160.6468   
   94.40609k    160.6468   
  100.00000k    160.6467   
y

 **warning** invalid fft start time,
             reset to transient start time 0.40000E-02

1****** HSPICE -- D-2010.03-SP1 32-BIT (May 26 2010) winnt ******               
 ******  
 #exp1simulation

  ******  fft analysis tnom=  25.000 temp=  25.000 *****
 fft components of transient response v(3)

 Window: Rectangular     

 DC: ON
 First Harmonic:  166.6667       
 Start Freq:  166.6667       
 Stop  Freq:   85.3333k      

 dc component: mag(dB)=   0.000E+00  mag=   1.000E+00  phase=   0.000E+00

 frequency    frequency    fft_mag     fft_mag
    fft_phase
   index        (hz)        (dB)                    (deg)

     1       166.6667     -77.9723    126.2943u    -87.4384 
     2       333.3333     -83.9884     63.1800u    -88.5195 
     3       500.0000     -87.5144     42.0997u    -88.7906 
     4       666.6667     -90.0247     31.5331u    -88.8615 
     5       833.3333     -91.9979     25.1251u    -88.8545 
     6         1.0000k    -72.9777    224.4467u    604.5077m
     7         1.1667k    -94.7883     18.2215u    -88.6380 
     8         1.3333k    -95.9840     15.8782u    -88.5824 
     9         1.5000k    -97.0204     14.0922u    -88.4987 
    10         1.6667k    -97.9434     12.6716u    -88.4223 
    11         1.8333k    -98.7771     11.5119u    -88.3843 
    12         2.0000k    -94.0654     19.8029u    -83.6913 
    13         2.1667k   -100.2485      9.7180u    -87.7568 
    14         2.3333k   -100.8940      9.0219u    -87.6943 
    15         2.5000k   -101.4975      8.4164u    -87.5940 
    16         2.6667k   -102.0624      7.8864u    -87.4595 
    17         2.8333k   -102.5887      7.4227u    -87.3194 
    18         3.0000k   -104.3266      6.0767u    -80.9444 
    19         3.1667k   -103.5871      6.6167u    -87.0236 
    20         3.3333k   -104.0335      6.2853u    -86.8588 
    21         3.5000k   -104.4615      5.9831u    -86.6936 
    22         3.6667k   -104.8700      5.7082u    -86.5071 
    23         3.8333k   -105.2613      5.4568u    -86.3382 
    24         4.0000k   -106.9758      4.4793u    -82.6533 
    25         4.1667k   -106.0011      5.0112u    -86.0408 
    26         4.3333k   -106.3465      4.8159u    -85.8266 
    27         4.5000k   -106.6807      4.6341u    -85.6552 
    28         4.6667k   -107.0027      4.4655u    -85.4620 
    29         4.8333k   -107.3140      4.3082u    -85.2628 
    30         5.0000k   -104.6843      5.8315u    -58.2805 
    31         5.1667k   -107.8998      4.0272u    -84.8990 
    32         5.3333k   -108.1824      3.8983u    -84.6957 
    33         5.5000k   -108.4545      3.7781u    -84.4842 
    34         5.6667k   -108.7207      3.6641u    -84.2519 
    35         5.8333k   -108.9748      3.5584u    -84.0558 
    36         6.0000k   -109.9737      3.1719u    -83.2570 
    37         6.1667k   -109.4665      3.3626u    -83.6684 
    38         6.3333k   -109.7021      3.2726u    -83.4069 
    39         6.5000k   -109.9309      3.1875u    -83.2206 
    40         6.6667k   -110.1543      3.1066u    -83.0035 
    41         6.8333k   -110.3741      3.0290u    -82.7644 
    42         7.0000k   -106.0707      4.9712u    -49.1646 
    43         7.1667k   -110.7790      2.8910u    -82.3540 
    44         7.3333k   -110.9831      2.8239u    -82.1223 
    45         7.5000k   -111.1795      2.7607u    -81.8933 
    46         7.6667k   -111.3775      2.6985u    -81.6272 
    47         7.8333k   -111.5587      2.6428u    -81.4456 
    48         8.0000k   -111.1298      2.7766u    -83.9684 
    49         8.1667k   -111.9151      2.5366u    -80.9558 
    50         8.3333k   -112.0882      2.4865u    -80.6853 
    51         8.5000k   -112.2593      2.4380u    -80.5088 
    52         8.6667k   -112.4245      2.3921u    -80.2825 
    53         8.8333k   -112.5875      2.3476u    -80.0546 
    54         9.0000k   -111.7589      2.5826u    -72.8471 
    55         9.1667k   -112.9004      2.2645u    -79.6010 
    56         9.3333k   -113.0509      2.2256u    -79.3777 
    57         9.5000k   -113.2009      2.1875u    -79.1530 
    58         9.6667k   -113.3491      2.1505u    -78.8806 
    59         9.8333k   -113.4894      2.1161u    -78.7121 
    60        10.0000k   -113.4591      2.1235u    -80.9158 
    61        10.1667k   -113.7627      2.0505u    -78.2682 
    62        10.3333k   -113.9018      2.0180u    -78.0530 
    63        10.5000k   -114.0287      1.9887u    -77.8442 
    64        10.6667k   -114.1560      1.9598u    -77.6334 
    65        10.8333k   -114.2838      1.9311u    -77.4348 
    66        11.0000k   -115.1760      1.7426u    -83.0812 
    67        11.1667k   -114.5302      1.8771u    -76.9954 
    68        11.3333k   -114.6473      1.8520u    -76.7917 
    69        11.5000k   -114.7667      1.8267u    -76.6059 
    70        11.6667k   -114.8839      1.8022u    -76.3874 
    71        11.8333k   -114.9944      1.7794u    -76.2211 
    72        12.0000k   -115.0048      1.7773u    -72.6593 
    73        12.1667k   -115.2199      1.7338u    -75.8400 
    74        12.3333k   -115.3291      1.7122u    -75.7276 
    75        12.5000k   -115.4334      1.6917u    -75.4751 
    76        12.6667k   -115.5361      1.6718u    -75.2822 
    77        12.8333k   -115.6414      1.6517u    -75.1188 
    78        13.0000k   -114.7069      1.8393u    -81.2618 
    79        13.1667k   -115.8448      1.6135u    -74.7831 
    80        13.3333k   -115.9440      1.5951u    -74.6039 
    81        13.5000k   -116.0420      1.5772u    -74.4489 
    82        13.6667k   -116.1305      1.5613u    -74.3690 
    83        13.8333k   -116.2344      1.5427u    -74.1305 
    84        14.0000k   -116.0486      1.5760u    -72.8526 
    85        14.1667k   -116.4238      1.5094u    -73.8038 
    86        14.3333k   -116.5159      1.4935u    -73.7161 
    87        14.5000k   -116.6076      1.4778u    -73.5035 
    88        14.6667k   -116.6992      1.4623u    -73.3429 
    89        14.8333k   -116.7872      1.4476u    -73.2075 
    90        15.0000k   -116.9778      1.4161u    -86.1140 
    91        15.1667k   -116.9679      1.4178u    -72.9196 
    92        15.3333k   -117.0564      1.4034u    -72.7602 
    93        15.5000k   -117.1413      1.3898u    -72.6343 
    94        15.6667k   -117.2144      1.3781u    -72.5967 
    95        15.8333k   -117.3125      1.3626u    -72.3528 
    96        16.0000k   -117.5378      1.3277u    -71.5877 
    97        16.1667k   -117.4823      1.3362u    -72.0829 
    98        16.3333k   -117.5600      1.3243u    -71.9139 
    99        16.5000k   -117.6488      1.3109u    -71.8069 
   100        16.6667k   -117.7363      1.2977u    -71.6538 
   101        16.8333k   -117.8131      1.2863u    -71.5336 
   102        17.0000k   -118.2616      1.2216u    -75.1724 
   103        17.1667k   -117.9764      1.2624u    -71.2613 
   104        17.3333k   -118.0571      1.2507u    -71.1262 
   105        17.5000k   -118.1367      1.2393u    -70.9862 
   106        17.6667k   -118.2035      1.2298u    -70.7780 
   107        17.8333k   -118.2950      1.2169u    -70.7082 
   108        18.0000k   -118.4784      1.1915u    -69.8646 
   109        18.1667k   -118.4527      1.1950u    -70.4333 
   110        18.3333k   -118.5236      1.1853u    -70.2547 
   111        18.5000k   -118.6075      1.1739u    -70.1468 
   112        18.6667k   -118.6832      1.1637u    -70.0062 
   113        18.8333k   -118.7608      1.1533u    -69.8532 
   114        19.0000k   -118.2479      1.2235u    -65.8486 
   115        19.1667k   -118.9113      1.1335u    -69.5695 
   116        19.3333k   -118.9882      1.1235u    -69.4318 
   117        19.5000k   -119.0610      1.1142u    -69.2639 
   118        19.6667k   -119.1347      1.1048u    -69.0745 
   119        19.8333k   -119.2088      1.0954u    -68.9528 
   120        20.0000k   -119.3897      1.0728u    -69.7320 
   121        20.1667k   -119.3533      1.0773u    -68.6417 
   122        20.3333k   -119.4225      1.0688u    -68.3806 
   123        20.5000k   -119.4971      1.0596u    -68.3162 
   124        20.6667k   -119.5684      1.0509u    -68.1743 
   125        20.8333k   -119.6392      1.0424u    -67.9836 
   126        21.0000k   -119.3875      1.0731u    -55.8131 
   127        21.1667k   -119.7752      1.0262u    -67.6456 
   128        21.3333k   -119.8452      1.0180u    -67.4739 
   129        21.5000k   -119.9127      1.0101u    -67.2992 
   130        21.6667k   -119.9963      1.0004u    -66.9959 
   131        21.8333k   -120.0472    994.5783n    -66.9478 
   132        22.0000k   -119.8995      1.0116u    -67.5497 
   133        22.1667k   -120.1780    979.7198n    -66.5760 
   134        22.3333k   -120.2352    973.2812n    -66.2376 
   135        22.5000k   -120.3072    965.2542n    -66.2118 
   136        22.6667k   -120.3699    958.3108n    -66.0199 
   137        22.8333k   -120.4336    951.3011n    -65.8396 
   138        23.0000k   -120.1676    980.8849n    -61.5230 
   139        23.1667k   -120.5570    937.8842n    -65.4582 
   140        23.3333k   -120.6133    931.8288n    -65.2692 
   141        23.5000k   -120.6780    924.9120n    -65.0759 
   142        23.6667k   -120.7391    918.4269n    -64.6194 
   143        23.8333k   -120.7961    912.4166n    -64.6903 
   144        24.0000k   -120.7946    912.5757n    -64.6733 
   145        24.1667k   -120.9113    900.3952n    -64.2975 
   146        24.3333k   -120.9696    894.3709n    -64.0973 
   147        24.5000k   -121.0240    888.7913n    -63.9076 
   148        24.6667k   -121.0716    883.9391n    -63.7042 
   149        24.8333k   -121.1338    877.6222n    -63.5169 
   150        25.0000k   -120.8178    910.1389n    -63.3280 
   151        25.1667k   -121.2414    866.8225n    -63.1200 
   152        25.3333k   -121.2914    861.8470n    -62.9154 
   153        25.5000k   -121.3459    856.4564n    -62.7303 
   154        25.6667k   -121.3981    851.3246n    -62.4778 
   155        25.8333k   -121.4477    846.4810n    -62.3411 
   156        26.0000k   -121.4942    841.9570n    -60.9700 
   157        26.1667k   -121.5487    836.6895n    -61.9545 
   158        26.3333k   -121.6002    831.7478n    -61.8303 
   159        26.5000k   -121.6458    827.3891n    -61.5703 
   160        26.6667k   -121.6921    822.9902n    -61.3619 
   161        26.8333k   -121.7411    818.3592n    -61.1890 
   162        27.0000k   -121.1127    879.7595n    -60.2838 
   163        27.1667k   -121.8340    809.6510n    -60.8183 
   164        27.3333k   -121.8806    805.3190n    -60.5965 
   165        27.5000k   -121.9255    801.1712n    -60.4468 
   166        27.6667k   -121.9576    798.2106n    -60.3185 
   167        27.8333k   -122.0149    792.9625n    -60.0833 
   168        28.0000k   -121.9312    800.6416n    -59.3193 
   169        28.1667k   -122.1036    784.9141n    -59.7164 
   170        28.3333k   -122.1351    782.0664n    -59.5591 
   171        28.5000k   -122.1898    777.1609n    -59.3638 
   172        28.6667k   -122.2364    773.0021n    -59.1476 
   173        28.8333k   -122.2745    769.6186n    -59.0143 
   174        29.0000k   -122.0902    786.1228n    -64.2786 
   175        29.1667k   -122.3602    762.0621n    -58.6741 
   176        29.3333k   -122.4022    758.3859n    -58.4951 
   177        29.5000k   -122.4427    754.8571n    -58.3338 
   178        29.6667k   -122.4479    754.4091n    -58.2285 
   179        29.8333k   -122.5247    747.7641n    -57.9986 
   180        30.0000k   -122.6738    735.0422n    -57.7601 
   181        30.1667k   -122.6061    740.7871n    -57.6745 
   182        30.3333k   -122.6439    737.5726n    -57.4699 
   183        30.5000k   -122.6868    733.9418n    -57.3477 
   184        30.6667k   -122.7324    730.0976n    -57.1760 
   185        30.8333k   -122.7669    727.2058n    -57.0261 
   186        31.0000k   -123.1214    698.1178n    -58.0411 
   187        31.1667k   -122.8465    720.5668n    -56.7059 
   188        31.3333k   -122.8874    717.1820n    -56.5540 
   189        31.5000k   -122.9257    714.0316n    -56.3893 
   190        31.6667k   -122.9549    711.6345n    -56.1670 
   191        31.8333k   -123.0043    707.5994n    -56.0733 
   192        32.0000k   -123.1381    696.7773n    -55.4790 
   193        32.1667k   -123.0833    701.1883n    -55.7638 
   194        32.3333k   -123.1221    698.0626n    -55.5337 
   195        32.5000k   -123.1614    694.9125n    -55.4484 
   196        32.6667k   -123.2002    691.8123n    -55.3100 
   197        32.8333k   -123.2397    688.6797n    -55.1322 
   198        33.0000k   -123.1659    694.5538n    -50.5329 
   199        33.1667k   -123.3159    682.6606n    -54.8226 
   200        33.3333k   -123.3572    679.4226n    -54.6820 
   201        33.5000k   -123.3937    676.5773n    -54.5047 
   202        33.6667k   -123.4498    672.2194n    -54.3220 
   203        33.8333k   -123.4709    670.5858n    -54.1868 
   204        34.0000k   -123.4209    674.4603n    -54.7112 
   205        34.1667k   -123.5467    664.7605n    -53.8612 
   206        34.3333k   -123.5883    661.5868n    -53.5476 
   207        34.5000k   -123.6231    658.9417n    -53.5381 
   208        34.6667k   -123.6593    656.1975n    -53.4115 
   209        34.8333k   -123.6989    653.2153n    -53.2108 
   210        35.0000k   -124.1309    621.5199n    -49.2190 
   211        35.1667k   -123.7734    647.6329n    -52.8763 
   212        35.3333k   -123.8093    644.9654n    -52.7125 
   213        35.5000k   -123.8481    642.0923n    -52.5413 
   214        35.6667k   -123.9293    636.1177n    -52.2802 
   215        35.8333k   -123.9220    636.6502n    -52.2010 
   216        36.0000k   -123.9272    636.2693n    -52.6496 
   217        36.1667k   -123.9943    631.3746n    -51.8548 
   218        36.3333k   -124.0334    628.5370n    -51.5235 
   219        36.5000k   -124.0665    626.1451n    -51.5066 
   220        36.6667k   -124.0990    623.8090n    -51.3039 
   221        36.8333k   -124.1379    621.0217n    -51.1553 
   222        37.0000k   -124.4932    596.1303n    -47.7891 
   223        37.1667k   -124.2074    616.0696n    -50.7911 
   224        37.3333k   -124.2356    614.0707n    -50.6137 
   225        37.5000k   -124.2765    611.1859n    -50.4318 
   226        37.6667k   -124.3249    607.7953n    -49.9125 
   227        37.8333k   -124.3442    606.4459n    -50.0686 
   228        38.0000k   -124.2895    610.2739n    -49.3938 
   229        38.1667k   -124.4114    601.7724n    -49.6963 
   230        38.3333k   -124.4514    599.0037n    -49.5855 
   231        38.5000k   -124.4765    597.2725n    -49.3267 
   232        38.6667k   -124.4933    596.1185n    -49.1320 
   233        38.8333k   -124.5404    592.8949n    -48.9528 
   234        39.0000k   -124.2032    616.3711n    -49.5115 
   235        39.1667k   -124.6036    588.5976n    -48.5788 
   236        39.3333k   -124.6324    586.6521n    -48.3662 
   237        39.5000k   -124.6649    584.4612n    -48.2023 
   238        39.6667k   -124.6947    582.4595n    -48.1035 
   239        39.8333k   -124.7249    580.4374n    -47.8253 
   240        40.0000k   -124.7494    578.7997n    -47.2376 
   241        40.1667k   -124.7840    576.4993n    -47.4480 
   242        40.3333k   -124.8101    574.7687n    -47.3958 
   243        40.5000k   -124.8414    572.7069n    -47.0712 
   244        40.6667k   -124.8690    570.8857n    -46.8508 
   245        40.8333k   -124.8974    569.0209n    -46.6949 
   246        41.0000k   -124.5426    592.7500n    -47.5634 
   247        41.1667k   -124.9526    565.4180n    -46.3228 
   248        41.3333k   -124.9803    563.6172n    -46.0857 
   249        41.5000k   -125.0063    561.9343n    -45.9499 
   250        41.6667k   -124.9975    562.5003n    -45.9409 
   251        41.8333k   -125.0588    558.5452n    -45.5805 
   252        42.0000k   -125.0445    559.4649n    -45.0063 
   253        42.1667k   -125.1108    555.2141n    -45.2109 
   254        42.3333k   -125.1075    555.4239n    -45.0881 
   255        42.5000k   -125.1612    552.0037n    -44.8472 
   256        42.6667k   -125.1965    549.7612n    -44.5714 
   257        42.8333k   -125.2106    548.8700n    -44.4858 
   258        43.0000k   -124.8840    569.9027n    -48.2316 
   259        43.1667k   -125.2604    545.7311n    -44.1310 
   260        43.3333k   -125.2843    544.2358n    -43.9478 
   261        43.5000k   -125.3082    542.7350n    -43.7751 
   262        43.6667k   -125.2226    548.1138n    -43.5676 
   263        43.8333k   -125.3556    539.7862n    -43.4243 
   264        44.0000k   -125.4509    533.8966n    -43.1317 
   265        44.1667k   -125.4026    536.8708n    -43.0800 
   266        44.3333k   -125.4087    536.4924n    -42.9550 
   267        44.5000k   -125.4490    534.0118n    -42.7352 
   268        44.6667k   -125.4725    532.5662n    -42.5888 
   269        44.8333k   -125.4949    531.1979n    -42.3936 
   270        45.0000k   -125.3886    537.7399n    -44.1312 
   271        45.1667k   -125.5407    528.4049n    -42.0578 
   272        45.3333k   -125.5674    526.7783n    -41.9097 
   273        45.5000k   -125.5859    525.6572n    -41.7220 
   274        45.6667k   -125.5656    526.8887n    -41.6546 
   275        45.8333k   -125.6310    522.9370n    -41.3889 
   276        46.0000k   -125.7096    518.2283n    -41.0232 
   277        46.1667k   -125.6762    520.2217n    -41.0610 
   278        46.3333k   -125.6912    519.3255n    -40.7970 
   279        46.5000k   -125.7210    517.5460n    -40.7307 
   280        46.6667k   -125.7506    515.7857n    -40.6128 
   281        46.8333k   -125.7660    514.8738n    -40.4015 
   282        47.0000k   -125.5867    525.6123n    -37.5466 
   283        47.1667k   -125.8097    512.2897n    -40.0789 
   284        47.3333k   -125.8336    510.8817n    -39.9211 
   285        47.5000k   -125.8546    509.6455n    -39.7512 
   286        47.6667k   -125.8911    507.5124n    -39.4585 
   287        47.8333k   -125.8994    507.0284n    -39.4251 
   288        48.0000k   -125.8411    510.4421n    -39.8887 
   289        48.1667k   -125.9431    504.4791n    -39.0936 
   290        48.3333k   -125.9507    504.0425n    -38.7228 
   291        48.5000k   -125.9877    501.9002n    -38.7669 
   292        48.6667k   -126.0053    500.8831n    -38.6118 
   293        48.8333k   -126.0320    499.3450n    -38.4377 
   294        49.0000k   -126.2916    484.6420n    -36.5679 
   295        49.1667k   -126.0759    496.8241n    -38.1038 
   296        49.3333k   -126.0943    495.7748n    -37.9639 
   297        49.5000k   -126.1199    494.3161n    -37.7709 
   298        49.6667k   -126.1681    491.5822n    -37.3458 
   299        49.8333k   -126.1636    491.8341n    -37.4350 
   300        50.0000k   -126.1697    491.4906n    -37.5580 
   301        50.1667k   -126.2067    489.3990n    -37.0957 
   302        50.3333k   -126.2345    487.8365n    -36.7460 
   303        50.5000k   -126.2499    486.9731n    -36.7548 
   304        50.6667k   -126.2606    486.3758n    -36.5871 
   305        50.8333k   -126.2927    484.5775n    -36.4115 
   306        51.0000k   -126.5172    472.2127n    -33.6316 
   307        51.1667k   -126.3346    482.2498n    -36.0598 
   308        51.3333k   -126.3493    481.4298n    -35.8862 
   309        51.5000k   -126.3764    479.9326n    -35.7110 
   310        51.6667k   -126.4460    476.0994n    -35.0319 
   311        51.8333k   -126.4174    477.6748n    -35.3582 
   312        52.0000k   -126.3959    478.8571n    -34.7312 
   313        52.1667k   -126.4584    475.4204n    -35.0002 
   314        52.3333k   -126.4873    473.8452n    -34.8270 
   315        52.5000k   -126.4982    473.2506n    -34.6419 
   316        52.6667k   -126.4997    473.1658n    -34.4329 
   317        52.8333k   -126.5374    471.1205n    -34.2791 
   318        53.0000k   -126.1891    490.3927n    -32.6116 
   319        53.1667k   -126.5756    469.0518n    -33.9183 
   320        53.3333k   -126.5928    468.1239n    -33.6928 
   321        53.5000k   -126.6132    467.0230n    -33.5522 
   322        53.6667k   -126.6440    465.3734n    -33.2634 
   323        53.8333k   -126.6501    465.0477n    -33.1854 
   324        54.0000k   -126.6150    466.9277n    -32.9054 
   325        54.1667k   -126.6860    463.1277n    -32.8144 
   326        54.3333k   -126.6905    462.8855n    -32.6782 
   327        54.5000k   -126.7210    461.2666n    -32.4459 
   328        54.6667k   -126.7397    460.2725n    -32.2105 
   329        54.8333k   -126.7550    459.4631n    -32.0761 
   330        55.0000k   -126.5593    469.9296n    -32.7039 
   331        55.1667k   -126.7888    457.6795n    -31.7068 
   332        55.3333k   -126.8042    456.8689n    -31.4809 
   333        55.5000k   -126.8210    455.9834n    -31.3367 
   334        55.6667k   -126.7950    457.3488n    -31.1536 
   335        55.8333k   -126.8525    454.3333n    -30.9671 
   336        56.0000k   -126.9081    451.4345n    -30.5806 
   337        56.1667k   -126.8834    452.7189n    -30.6007 
   338        56.3333k   -126.8730    453.2637n    -30.4266 
   339        56.5000k   -126.9132    451.1675n    -30.2334 
   340        56.6667k   -126.9387    449.8486n    -29.9259 
   341        56.8333k   -126.9425    449.6507n    -29.8683 
   342        57.0000k   -126.7797    458.1576n    -30.6675 
   343        57.1667k   -126.9710    448.1753n    -29.5060 
   344        57.3333k   -126.9856    447.4241n    -29.3287 
   345        57.5000k   -126.9988    446.7464n    -29.1440 
   346        57.6667k   -126.8726    453.2835n    -28.7457 
   347        57.8333k   -127.0258    445.3595n    -28.7865 
   348        58.0000k   -127.0584    443.6889n    -28.3592 
   349        58.1667k   -127.0527    443.9813n    -28.4306 
   350        58.3333k   -127.0560    443.8118n    -28.2793 
   351        58.5000k   -127.0788    442.6514n    -28.0764 
   352        58.6667k   -127.0926    441.9487n    -27.9814 
   353        58.8333k   -127.1043    441.3524n    -27.7242 
   354        59.0000k   -126.9422    449.6647n    -28.7242 
   355        59.1667k   -127.1297    440.0653n    -27.3784 
   356        59.3333k   -127.1460    439.2365n    -27.2224 
   357        59.5000k   -127.1546    438.8049n    -27.0314 
   358        59.6667k   -127.1299    440.0527n    -27.1034 
   359        59.8333k   -127.1793    437.5573n    -26.6875 
   360        60.0000k   -127.2120    435.9124n    -26.6599 
   361        60.1667k   -127.2036    436.3357n    -26.3470 
   362        60.3333k   -127.2145    435.7882n    -26.0827 
   363        60.5000k   -127.2279    435.1165n    -26.0071 
   364        60.6667k   -127.2478    434.1195n    -25.9251 
   365        60.8333k   -127.2521    433.9075n    -25.6695 
   366        61.0000k   -127.3506    429.0136n    -24.4184 
   367        61.1667k   -127.2756    432.7319n    -25.3342 
   368        61.3333k   -127.2873    432.1502n    -25.1775 
   369        61.5000k   -127.2997    431.5327n    -24.9996 
   370        61.6667k   -127.3730    427.9055n    -24.9400 
   371        61.8333k   -127.3237    430.3448n    -24.6656 
   372        62.0000k   -127.2936    431.8367n    -24.8708 
   373        62.1667k   -127.3471    429.1851n    -24.3307 
   374        62.3333k   -127.3539    428.8488n    -24.0003 
   375        62.5000k   -127.3710    428.0085n    -23.9990 
   376        62.6667k   -127.3765    427.7343n    -23.7736 
   377        62.8333k   -127.3949    426.8314n    -23.6669 
   378        63.0000k   -127.7152    411.3776n    -22.8323 
   379        63.1667k   -127.4185    425.6742n    -23.3309 
   380        63.3333k   -127.4235    425.4275n    -23.1994 
   381        63.5000k   -127.4422    424.5140n    -22.9978 
   382        63.6667k   -127.4667    423.3147n    -22.7258 
   383        63.8333k   -127.4657    423.3629n    -22.6639 
   384        64.0000k   -127.4444    424.4054n    -22.6056 
   385        64.1667k   -127.4892    422.2215n    -22.3263 
   386        64.3333k   -127.5218    420.6413n    -22.1446 
   387        64.5000k   -127.5127    421.0808n    -21.9895 
   388        64.6667k   -127.4958    421.8989n    -21.8882 
   389        64.8333k   -127.5359    419.9573n    -21.6501 
   390        65.0000k   -127.7640    409.0719n    -20.9448 
   391        65.1667k   -127.5590    418.8433n    -21.3061 
   392        65.3333k   -127.5670    418.4574n    -21.1252 
   393        65.5000k   -127.5818    417.7438n    -20.9640 
   394        65.6667k   -127.6996    412.1151n    -20.8402 
   395        65.8333k   -127.6044    416.6598n    -20.6178 
   396        66.0000k   -127.5914    417.2801n    -20.0872 
   397        66.1667k   -127.6270    415.5749n    -20.2692 
   398        66.3333k   -127.6497    414.4915n    -20.1655 
   399        66.5000k   -127.6488    414.5334n    -19.9191 
   400        66.6667k   -127.6495    414.5002n    -19.6793 
   401        66.8333k   -127.6704    413.5059n    -19.5656 
   402        67.0000k   -127.4332    424.9537n    -18.6728 
   403        67.1667k   -127.6914    412.5070n    -19.2133 
   404        67.3333k   -127.6980    412.1909n    -18.9707 
   405        67.5000k   -127.7120    411.5286n    -18.8558 
   406        67.6667k   -127.7424    410.0914n    -18.6242 
   407        67.8333k   -127.7321    410.5761n    -18.4969 
   408        68.0000k   -127.7040    411.9059n    -18.3424 
   409        68.1667k   -127.7515    409.6617n    -18.1342 
   410        68.3333k   -127.7283    410.7561n    -18.0859 
   411        68.5000k   -127.7703    408.7743n    -17.7729 
   412        68.6667k   -127.7766    408.4798n    -17.4177 
   413        68.8333k   -127.7886    407.9161n    -17.4090 
   414        69.0000k   -127.6129    416.2492n    -18.4497 
   415        69.1667k   -127.8066    407.0696n    -17.0445 
   416        69.3333k   -127.8153    406.6650n    -16.8373 
   417        69.5000k   -127.8233    406.2867n    -16.6781 
   418        69.6667k   -127.6658    413.7227n    -16.5592 
   419        69.8333k   -127.8396    405.5285n    -16.3127 
   420        70.0000k   -127.8923    403.0756n    -15.9541 
   421        70.1667k   -127.8553    404.7963n    -15.9478 
   422        70.3333k   -127.8283    406.0561n    -15.8334 
   423        70.5000k   -127.8701    404.1062n    -15.5807 
   424        70.6667k   -127.8916    403.1079n    -15.3712 
   425        70.8333k   -127.8843    403.4472n    -15.2147 
   426        71.0000k   -127.6560    414.1883n    -15.7848 
   427        71.1667k   -127.8978    402.8168n    -14.8506 
   428        71.3333k   -127.9072    402.3822n    -14.6733 
   429        71.5000k   -127.9107    402.2205n    -14.4853 
   430        71.6667k   -127.7189    411.1995n    -13.9362 
   431        71.8333k   -127.9228    401.6605n    -14.1236 
   432        72.0000k   -127.9456    400.6066n    -13.6992 
   433        72.1667k   -127.9348    401.1059n    -13.7620 
   434        72.3333k   -127.9146    402.0399n    -13.5807 
   435        72.5000k   -127.9459    400.5952n    -13.4015 
   436        72.6667k   -127.9568    400.0925n    -13.2932 
   437        72.8333k   -127.9564    400.1095n    -13.0420 
   438        73.0000k   -127.6116    416.3119n    -13.4213 
   439        73.1667k   -127.9665    399.6449n    -12.6899 
   440        73.3333k   -127.9749    399.2607n    -12.5206 
   441        73.5000k   -127.9763    399.1956n    -12.3342 
   442        73.6667k   -127.8519    404.9514n    -12.2398 
   443        73.8333k   -127.9857    398.7629n    -11.9828 
   444        74.0000k   -127.9830    398.8884n    -12.1487 
   445        74.1667k   -127.9943    398.3668n    -11.6321 
   446        74.3333k   -127.9715    399.4145n    -11.3363 
   447        74.5000k   -128.0031    397.9635n    -11.2845 
   448        74.6667k   -128.0191    397.2331n    -11.2481 
   449        74.8333k   -128.0115    397.5808n    -10.9392 
   450        75.0000k   -128.0771    394.5872n    -10.6247 
   451        75.1667k   -128.0197    397.2074n    -10.5947 
   452        75.3333k   -128.0212    397.1374n    -10.4589 
   453        75.5000k   -128.0278    396.8369n    -10.2529 
   454        75.6667k   -128.0544    395.6213n    -10.0525 
   455        75.8333k   -128.0356    396.4805n     -9.9119 
   456        76.0000k   -128.0333    396.5826n     -9.9193 
   457        76.1667k   -128.0432    396.1313n     -9.5729 
   458        76.3333k   -128.0397    396.2905n     -9.2299 
   459        76.5000k   -128.0509    395.7799n     -9.2357 
   460        76.6667k   -128.0367    396.4267n     -8.9876 
   461        76.8333k   -128.0588    395.4219n     -8.8987 
   462        77.0000k   -128.2410    387.2136n     -7.7442 
   463        77.1667k   -128.0661    395.0912n     -8.5610 
   464        77.3333k   -128.0646    395.1552n     -8.4339 
   465        77.5000k   -128.0737    394.7440n     -8.2258 
   466        77.6667k   -128.0787    394.5160n     -7.7836 
   467        77.8333k   -128.0811    394.4055n     -7.8916 
   468        78.0000k   -128.0410    396.2345n     -7.7146 
   469        78.1667k   -128.0887    394.0615n     -7.5540 
   470        78.3333k   -128.1167    392.7920n     -7.3213 
   471        78.5000k   -128.0962    393.7210n     -7.2188 
   472        78.6667k   -128.0651    395.1340n     -7.1771 
   473        78.8333k   -128.1035    393.3913n     -6.8811 
   474        79.0000k   -128.1892    389.5299n     -6.2753 
   475        79.1667k   -128.1109    393.0557n     -6.5432 
   476        79.3333k   -128.1098    393.1059n     -6.3501 
   477        79.5000k   -128.1182    392.7270n     -6.2053 
   478        79.6667k   -128.3059    384.3328n     -6.1117 
   479        79.8333k   -128.1255    392.3980n     -5.8637 
   480        80.0000k   -128.1085    393.1667n     -5.5846 
   481        80.1667k   -128.1326    392.0774n     -5.5217 
   482        80.3333k   -128.1452    391.5080n     -5.3853 
   483        80.5000k   -128.1394    391.7699n     -5.1786 
   484        80.6667k   -128.1350    391.9664n     -4.9049 
   485        80.8333k   -128.1461    391.4655n     -4.8330 
   486        81.0000k   -128.0817    394.3809n     -3.8252 
   487        81.1667k   -128.1525    391.1780n     -4.4864 
   488        81.3333k   -128.1528    391.1630n     -4.2582 
   489        81.5000k   -128.1587    390.9003n     -4.1373 
   490        81.6667k   -128.2706    385.8968n     -3.5981 
   491        81.8333k   -128.1645    390.6388n     -3.7849 
   492        82.0000k   -128.1576    390.9495n     -3.5741 
   493        82.1667k   -128.1699    390.3950n     -3.4313 
   494        82.3333k   -128.1475    391.4044n     -3.2944 
   495        82.5000k   -128.1748    390.1734n     -3.0767 
   496        82.6667k   -128.1713    390.3320n     -2.6023 
   497        82.8333k   -128.1797    389.9557n     -2.7191 
   498        83.0000k   -128.0790    394.5040n     -2.6572 
   499        83.1667k   -128.1839    389.7680n     -2.3604 
   500        83.3333k   -128.1846    389.7352n     -2.1717 
   501        83.5000k   -128.1873    389.6123n     -1.9988 
   502        83.6667k   -127.9703    399.4727n     -1.5593 
   503        83.8333k   -128.1904    389.4756n     -1.6395 
   504        84.0000k   -128.2154    388.3573n     -1.3419 
   505        84.1667k   -128.1930    389.3609n     -1.2765 
   506        84.3333k   -128.1778    390.0391n     -1.1516 
   507        84.5000k   -128.1949    389.2756n   -911.8576m
   508        84.6667k   -128.2059    388.7810n   -857.0372m
   509        84.8333k   -128.1959    389.2274n   -547.2502m
   510        85.0000k   -128.0554    395.5765n   -715.0195m
   511        85.1667k   -128.1966    389.1962n   -182.8666m
   512        85.3333k   -111.8109      2.5672u      0.     

 fourier components of transient response v(3)
 dc component = 6.59922
 
 harmonic frequency fourier   normalized phase    normalized  
 no       (hz)      component component  (deg)    phase (deg) 
 1        1.00000k  1.47753m  1.00000    91.1683  0.          
 2        2.00000k  123.934u  83.8794m   6.09200  -85.0763    
 3        3.00000k  35.3248u  23.9081m   8.27357  -82.8947    
 4        4.00000k  26.0868u  17.6557m   5.17717  -85.9911    
 5        5.00000k  35.5371u  24.0518m   31.7149  -59.4534    
 6        6.00000k  18.8329u  12.7462m   2.52016  -88.6481    
 7        7.00000k  30.4454u  20.6057m   40.2909  -50.8774    
 8        8.00000k  16.9020u  11.4394m   346.576m -90.8217    
 9        9.00000k  15.4529u  10.4586m   11.6891  -79.4792    
 
 total harmonic distortion =   9.65653  percent

          ***** job concluded
1****** HSPICE -- D-2010.03-SP1 32-BIT (May 26 2010) winnt ******               
 ******  
 #exp1simulation

  ******  job statistics summary tnom=  25.000 temp=  25.000 *****

  ******  HSPICE Threads Information  ******

  Command Line Threads Count                  :     1
  Available CPU Count                         :     8
  Actual Model Evaluation(Load) Threads Count :     1
  Actual Solver Threads Count                 :     1


  ******  Circuit Statistics  ******
  # nodes       =      10 # elements   =      14
  # resistors   =       6 # capacitors =       3 # inductors   =       0
  # mutual_inds =       0 # vccs       =       0 # vcvs        =       0
  # cccs        =       0 # ccvs       =       0 # volt_srcs   =       4
  # curr_srcs   =       0 # diodes     =       0 # bjts        =       1
  # jfets       =       0 # mosfets    =       0 # U elements  =       0
  # T elements  =       0 # W elements =       0 # B elements  =       0
  # S elements  =       0 # P elements =       0 # va device   =       0


  ******  Runtime Statistics (seconds)  ******

  analysis           time    # points   tot. iter  conv.iter
  op point           0.01           1           8
  ac analysis        0.03          81          81
  transient          0.04      600001         520         230 rev=         0
  readin             0.04
  errchk             0.01
  setup              0.02
  output             0.00


           total memory used          168  kbytes
           total cpu time            0.23 seconds
           total elapsed time        0.52 seconds
           job started at     18:57:25 10/07/2017
           job ended   at     18:57:26 10/07/2017


  lic: Release hspice token(s) 
