 ****** HSPICE -- D-2010.03-SP1 32-BIT (May 26 2010) winnt ******               
  Copyright (C) 2010 Synopsys, Inc. All Rights Reserved.                        
  Unpublished-rights reserved under US copyright laws.
  This program is protected by law and is subject to the 
  terms and conditions of the license agreement from Synopsys.
  Use of this program is your acceptance to be bound by the 
  license agreement. HSPICE is the trademark of Synopsys, Inc.
  Input File: d:\university\term 4\electronics principles & lab\dr.fakhar zade\l
  lic:  
  lic: FLEXlm: v8.5b 
  lic: USER:   Amin                 HOSTNAME: DESKTOP-1VFM22V 
  lic: HOSTID: "708bcd0821f7 484520c021cd 484520c021ce" PID:      9044 
  lic: Using FLEXlm license file: 
  lic: 27000@elena 
  lic: Checkout 1 hspice 
  lic: License/Maintenance for hspice will expire on 31-dec-2020/2007.9 
  lic: NODE LOCKED license on hostid "708bcd0821f7 484520c021cd 484520c021ce" 
  lic:   
 Init: read install configuration file: C:\synopsys\Hspice_D-2010.03-SP1\meta.cfg

 **warning** It is recommended that you set start explicitly:
             .TRAN tstep tstop START=val


1****** HSPICE -- D-2010.03-SP1 32-BIT (May 26 2010) winnt ******               
 ******  
 ************6-3

  ******  bjt   model parameters tnom=  25.000 temp=  25.000 *****

 ************************************************************************
 *** bjt model parameters   model name:   0:mynpn    model type:npn   ***
 ************************************************************************

     names  values   units     names  values   units     names  values   units
     -----  ------   -----     -----  ------   -----     -----  ------   -----

   1*** basic dc parameters ***
    level=   1.00                bf=  50.00                br=   1.00         
      brs=   0.                bulk=  gnd                  is=   1.00f amps   
      iss=   0.    amps          nf=   1.00                nr=   1.00         
       ns=   1.00               ibe=   0.    amps         ibc=   0.    amps   
     subs=   1.00             expli=   0.    amps   

   2*** low current beta degradation effect parameters ***
      isc=   0.    amps         ise=   0.    amps          nc=   2.00         
       ne=   1.50         

   3*** base width modulation parameters ***
      vaf= 100.00  volts        var=   0.    volts  

   4*** high current beta degradation effect parameters ***
      ikf=   0.    amps         nkf= 500.00m              ikr=   0.    amps   

   5*** parasitic resistor parameters ***
      irb=   0.    amps          rb=   0.    ohms         rbm=   0.    ohms   
       re=   0.    ohms          rc=   0.    ohms         rcc=   0.    ohms   
       vo=   0.    volts      gamma=   0.           

   6*** junction capacitor parameters ***
     cbcp=   0.    farad       cbep=   0.    farad       ccsp=   0.    farad  
      cjc=   0.    farad        cje=   0.    farad        cjs=   0.    farad  
       fc= 500.00m              mjc= 330.00m              mje= 330.00m        
      mjs= 500.00m              vjc= 750.00m volts        vje= 750.00m volts  
      vjs= 750.00m volts       xcjc=   1.00               qco=   0.    coul   

   7*** transit time parameters ***
      itf=   0.    amps         ptf=   0.    deg k         tf=   0.    secs   
       tr=   0.    secs         vtf=   0.                 xtf=   0.           

   8*** temperature compensation parameters ***
     tlev=   0.               tlevc=   0.                tre1=   0.    /deg   
     tre2=   0.    /deg2       trb1=   0.    /deg        trc1=   0.    /deg   
     trb2=   0.    /deg2       trm1=   0.    /deg         xtb=   0.           
     trm2=   0.    /deg2        xti=   3.00               cte=   0.    /deg   
      ctc=   0.    /deg         cts=   0.    /deg        trc2=   0.    /deg2  
     tref=  25.00   deg c       bex=   2.42              bexv=   1.90         

   9*** noise parameters ***
       kf=   0.                  af=   1.00         

 ************************************************************************
 *** bjt model parameters   model name:   0:mypnp    model type:pnp   ***
 ************************************************************************

     names  values   units     names  values   units     names  values   units
     -----  ------   -----     -----  ------   -----     -----  ------   -----

   1*** basic dc parameters ***
    level=   1.00                bf=  50.00                br=   1.00         
      brs=   0.                bulk=  gnd                  is=   1.00f amps   
      iss=   0.    amps          nf=   1.00                nr=   1.00         
       ns=   1.00               ibe=   0.    amps         ibc=   0.    amps   
     subs=  -1.00             expli=   0.    amps   

   2*** low current beta degradation effect parameters ***
      isc=   0.    amps         ise=   0.    amps          nc=   2.00         
       ne=   1.50         

   3*** base width modulation parameters ***
      vaf= 100.00  volts        var=   0.    volts  

   4*** high current beta degradation effect parameters ***
      ikf=   0.    amps         nkf= 500.00m              ikr=   0.    amps   

   5*** parasitic resistor parameters ***
      irb=   0.    amps          rb=   0.    ohms         rbm=   0.    ohms   
       re=   0.    ohms          rc=   0.    ohms         rcc=   0.    ohms   
       vo=   0.    volts      gamma=   0.           

   6*** junction capacitor parameters ***
     cbcp=   0.    farad       cbep=   0.    farad       ccsp=   0.    farad  
      cjc=   0.    farad        cje=   0.    farad        cjs=   0.    farad  
       fc= 500.00m              mjc= 330.00m              mje= 330.00m        
      mjs= 500.00m              vjc= 750.00m volts        vje= 750.00m volts  
      vjs= 750.00m volts       xcjc=   1.00               qco=   0.    coul   

   7*** transit time parameters ***
      itf=   0.    amps         ptf=   0.    deg k         tf=   0.    secs   
       tr=   0.    secs         vtf=   0.                 xtf=   0.           

   8*** temperature compensation parameters ***
     tlev=   0.               tlevc=   0.                tre1=   0.    /deg   
     tre2=   0.    /deg2       trb1=   0.    /deg        trc1=   0.    /deg   
     trb2=   0.    /deg2       trm1=   0.    /deg         xtb=   0.           
     trm2=   0.    /deg2        xti=   3.00               cte=   0.    /deg   
      ctc=   0.    /deg         cts=   0.    /deg        trc2=   0.    /deg2  
     tref=  25.00   deg c       bex=   2.42              bexv=   1.90         

   9*** noise parameters ***
       kf=   0.                  af=   1.00         
  **info** (d:\university\term 4\electronics principles & lab\dr.fakhar zade\lab\exp6\6-3.sp:4) DC voltage reset to initial transient source value              in source        0:vin                 new dc=  0.0000D+00
 
      
 *****************************************************************
 ******  option summary
 ******
 runlvl  = 3         bypass  = 2         
1****** HSPICE -- D-2010.03-SP1 32-BIT (May 26 2010) winnt ******               
 ******  
 ************6-3

  ******  operating point information tnom=  25.000 temp=  25.000 *****
 ***** operating point status is all       simulation time is     0.     
    node    =voltage      node    =voltage      node    =voltage

 +0:1       =   0.      0:2       =   6.0000  0:3       =   6.0000 
 +0:4       =   0.      0:100     =  12.0000 


 ****  voltage sources

 subckt                        
 element  0:vcc      0:vin     
  volts     12.0000     0.     
  current   -6.0000m    0.     
  power     72.0000m    0.     

     total voltage source power dissipation=   72.0000m       watts



 **** resistors

 subckt                                   
 element  0:r2       0:r1       0:rl      
  r value    1.0000k    1.0000k  100.0000 
  v drop     6.0000     6.0000     0.     
  current    6.0000m    6.0000m    0.     
  power     36.0000m   36.0000m    0.     


 **** bipolar junction transistors


 subckt                        
 element  0:q1       0:q2      
 model    0:mynpn    0:mypnp   
  ib        -1.0000f    1.0000f
  ic         2.0600f   -2.0600f
  vbe        0.         0.     
  vce        6.0000    -6.0000 
  vbc       -6.0000     6.0000 
  vs       -12.0000    -6.0000 
  power     12.3600f   12.3600f
  betad     -2.0600    -2.0600 
  gm        41.0716f   41.0716f
  rpi      1.284e+15  1.284e+15
  rx         0.         0.     
  ro       5.357e+15  5.357e+15
  cpi        0.         0.     
  cmu        0.         0.     
  cbx        0.         0.     
  ccs        0.         0.     
  betaac    52.7602    52.7602 
  ft         6.5102     6.5102 



 ******  
 ************6-3

  ******  transient analysis tnom=  25.000 temp=  25.000 *****
   pl=  1.5614E-01  from=  1.0000E-03     to=  9.0000E-03
   ptot=  3.1987E-01  from=  1.0000E-03     to=  9.0000E-03

a


      time       i(q1)
 (a       )       0.           20.0000m      40.0000m      60.0000m     80.0000m
                      +             +             +             +             + 
    0.         6.002p-a------+------+------+------+------+------+------+------+-
   10.0000u  828.041n a      +      +      +      +      +      +      +      + 
   20.0000u    1.142m +a     +      +      +      +      +      +      +      + 
   30.0000u    4.798m +  a   +      +      +      +      +      +      +      + 
   40.0000u    8.589m +     a+      +      +      +      +      +      +      + 
   50.0000u   12.363m +      + a    +      +      +      +      +      +      + 
   60.0000u   16.091m +      +   a  +      +      +      +      +      +      + 
   70.0000u   19.679m +      +      a      +      +      +      +      +      + 
   80.0000u   22.970m +      +      + a    +      +      +      +      +      + 
   90.0000u   26.261m +      +      +   a  +      +      +      +      +      + 
  100.0000u   29.553m-+------+------+------a------+------+------+------+------+-
  110.0000u   32.844m +      +      +      + a    +      +      +      +      + 
  120.0000u   36.136m +      +      +      +   a  +      +      +      +      + 
  130.0000u   38.835m +      +      +      +     a+      +      +      +      + 
  140.0000u   41.438m +      +      +      +      +a     +      +      +      + 
  150.0000u   44.040m +      +      +      +      +  a   +      +      +      + 
  160.0000u   45.850m +      +      +      +      +   a  +      +      +      + 
  170.0000u   47.660m +      +      +      +      +    a +      +      +      + 
  180.0000u   49.471m +      +      +      +      +      a      +      +      + 
  190.0000u   51.281m +      +      +      +      +      +a     +      +      + 
  200.0000u   52.770m-+------+------+------+------+------+-a----+------+------+-
  210.0000u   53.826m +      +      +      +      +      +  a   +      +      + 
  220.0000u   54.516m +      +      +      +      +      +  a   +      +      + 
  230.0000u   54.893m +      +      +      +      +      +  a   +      +      + 
  240.0000u   55.271m +      +      +      +      +      +   a  +      +      + 
  250.0000u   55.648m +      +      +      +      +      +   a  +      +      + 
  260.0000u   54.955m +      +      +      +      +      +  a   +      +      + 
  270.0000u   54.261m +      +      +      +      +      +  a   +      +      + 
  280.0000u   53.568m +      +      +      +      +      + a    +      +      + 
  290.0000u   52.874m +      +      +      +      +      + a    +      +      + 
  300.0000u   52.181m-+------+------+------+------+------+-a----+------+------+-
  310.0000u   50.663m +      +      +      +      +      a      +      +      + 
  320.0000u   48.990m +      +      +      +      +     a+      +      +      + 
  330.0000u   46.910m +      +      +      +      +    a +      +      +      + 
  340.0000u   44.830m +      +      +      +      +  a   +      +      +      + 
  350.0000u   42.750m +      +      +      +      + a    +      +      +      + 
  360.0000u   39.854m +      +      +      +      a      +      +      +      + 
  370.0000u   36.958m +      +      +      +    a +      +      +      +      + 
  380.0000u   34.062m +      +      +      +  a   +      +      +      +      + 
  390.0000u   31.166m +      +      +      +a     +      +      +      +      + 
  400.0000u   28.270m-+------+------+-----a+------+------+------+------+------+-
  410.0000u   24.953m +      +      +  a   +      +      +      +      +      + 
  420.0000u   21.500m +      +      +a     +      +      +      +      +      + 
  430.0000u   17.891m +      +     a+      +      +      +      +      +      + 
  440.0000u   14.210m +      +  a   +      +      +      +      +      +      + 
  450.0000u   10.432m +      a      +      +      +      +      +      +      + 
  460.0000u    6.654m +    a +      +      +      +      +      +      +      + 
  470.0000u    2.906m + a    +      +      +      +      +      +      +      + 
  480.0000u    1.664m +a     +      +      +      +      +      +      +      + 
  490.0000u  832.082u +a     +      +      +      +      +      +      +      + 
  500.0000u    6.045p-a------+------+------+------+------+------+------+------+-
  510.0000u    6.459p a      +      +      +      +      +      +      +      + 
  520.0000u    6.867p a      +      +      +      +      +      +      +      + 
  530.0000u    7.271p a      +      +      +      +      +      +      +      + 
  540.0000u    7.675p a      +      +      +      +      +      +      +      + 
  550.0000u    8.079p a      +      +      +      +      +      +      +      + 
  560.0000u    8.464p a      +      +      +      +      +      +      +      + 
  570.0000u    8.837p a      +      +      +      +      +      +      +      + 
  580.0000u    9.211p a      +      +      +      +      +      +      +      + 
  590.0000u    9.571p a      +      +      +      +      +      +      +      + 
  600.0000u    9.898p-a------+------+------+------+------+------+------+------+-
  610.0000u   10.225p a      +      +      +      +      +      +      +      + 
  620.0000u   10.552p a      +      +      +      +      +      +      +      + 
  630.0000u   10.833p a      +      +      +      +      +      +      +      + 
  640.0000u   11.104p a      +      +      +      +      +      +      +      + 
  650.0000u   11.375p a      +      +      +      +      +      +      +      + 
  660.0000u   11.567p a      +      +      +      +      +      +      +      + 
  670.0000u   11.759p a      +      +      +      +      +      +      +      + 
  680.0000u   11.951p a      +      +      +      +      +      +      +      + 
  690.0000u   12.144p a      +      +      +      +      +      +      +      + 
  700.0000u   12.297p-a------+------+------+------+------+------+------+------+-
  710.0000u   12.413p a      +      +      +      +      +      +      +      + 
  720.0000u   12.485p a      +      +      +      +      +      +      +      + 
  730.0000u   12.531p a      +      +      +      +      +      +      +      + 
  740.0000u   12.576p a      +      +      +      +      +      +      +      + 
  750.0000u   12.622p a      +      +      +      +      +      +      +      + 
  760.0000u   12.556p a      +      +      +      +      +      +      +      + 
  770.0000u   12.490p a      +      +      +      +      +      +      +      + 
  780.0000u   12.424p a      +      +      +      +      +      +      +      + 
  790.0000u   12.358p a      +      +      +      +      +      +      +      + 
  800.0000u   12.292p-a------+------+------+------+------+------+------+------+-
  810.0000u   12.141p a      +      +      +      +      +      +      +      + 
  820.0000u   11.975p a      +      +      +      +      +      +      +      + 
  830.0000u   11.766p a      +      +      +      +      +      +      +      + 
  840.0000u   11.557p a      +      +      +      +      +      +      +      + 
  850.0000u   11.348p a      +      +      +      +      +      +      +      + 
  860.0000u   11.053p a      +      +      +      +      +      +      +      + 
  870.0000u   10.758p a      +      +      +      +      +      +      +      + 
  880.0000u   10.463p a      +      +      +      +      +      +      +      + 
  890.0000u   10.168p a      +      +      +      +      +      +      +      + 
  900.0000u    9.873p-a------+------+------+------+------+------+------+------+-
  910.0000u    9.534p a      +      +      +      +      +      +      +      + 
  920.0000u    9.181p a      +      +      +      +      +      +      +      + 
  930.0000u    8.793p a      +      +      +      +      +      +      +      + 
  940.0000u    8.399p a      +      +      +      +      +      +      +      + 
  950.0000u    8.005p a      +      +      +      +      +      +      +      + 
  960.0000u    7.611p a      +      +      +      +      +      +      +      + 
  970.0000u    7.216p a      +      +      +      +      +      +      +      + 
  980.0000u    6.822p a      +      +      +      +      +      +      +      + 
  990.0000u    6.415p a      +      +      +      +      +      +      +      + 
    1.0000m    6.002p-a------+------+------+------+------+------+------+------+-
    1.0100m  128.627n a      +      +      +      +      +      +      +      + 
    1.0200m    1.438m +a     +      +      +      +      +      +      +      + 
    1.0300m    4.904m +  a   +      +      +      +      +      +      +      + 
    1.0400m    8.686m +     a+      +      +      +      +      +      +      + 
    1.0500m   12.491m +      + a    +      +      +      +      +      +      + 
    1.0600m   16.163m +      +   a  +      +      +      +      +      +      + 
    1.0700m   19.834m +      +      a      +      +      +      +      +      + 
    1.0800m   23.245m +      +      + a    +      +      +      +      +      + 
    1.0900m   26.306m +      +      +   a  +      +      +      +      +      + 
    1.1000m   29.367m-+------+------+------a------+------+------+------+------+-
    1.1100m   32.429m +      +      +      + a    +      +      +      +      + 
    1.1200m   35.490m +      +      +      +   a  +      +      +      +      + 
    1.1300m   38.552m +      +      +      +     a+      +      +      +      + 
    1.1400m   41.613m +      +      +      +      +a     +      +      +      + 
    1.1500m   44.144m +      +      +      +      +  a   +      +      +      + 
    1.1600m   46.325m +      +      +      +      +   a  +      +      +      + 
    1.1700m   48.257m +      +      +      +      +     a+      +      +      + 
    1.1800m   50.089m +      +      +      +      +      a      +      +      + 
    1.1900m   51.142m +      +      +      +      +      +a     +      +      + 
    1.2000m   52.020m-+------+------+------+------+------+a-----+------+------+-
    1.2100m   52.897m +      +      +      +      +      + a    +      +      + 
    1.2200m   53.775m +      +      +      +      +      +  a   +      +      + 
    1.2300m   54.653m +      +      +      +      +      +  a   +      +      + 
    1.2400m   55.531m +      +      +      +      +      +   a  +      +      + 
    1.2500m   55.775m +      +      +      +      +      +   a  +      +      + 
    1.2600m   55.558m +      +      +      +      +      +   a  +      +      + 
    1.2700m   55.042m +      +      +      +      +      +   a  +      +      + 
    1.2800m   54.373m +      +      +      +      +      +  a   +      +      + 
    1.2900m   52.912m +      +      +      +      +      + a    +      +      + 
    1.3000m   51.451m-+------+------+------+------+------+a-----+------+------+-
    1.3100m   49.991m +      +      +      +      +      a      +      +      + 
    1.3200m   48.530m +      +      +      +      +     a+      +      +      + 
    1.3300m   47.070m +      +      +      +      +    a +      +      +      + 
    1.3400m   45.127m +      +      +      +      +   a  +      +      +      + 
    1.3500m   42.866m +      +      +      +      + a    +      +      +      + 
    1.3600m   40.196m +      +      +      +      a      +      +      +      + 
    1.3700m   37.526m +      +      +      +    a +      +      +      +      + 
    1.3800m   34.681m +      +      +      +  a   +      +      +      +      + 
    1.3900m   31.612m +      +      +      +a     +      +      +      +      + 
    1.4000m   28.283m-+------+------+-----a+------+------+------+------+------+-
    1.4100m   24.703m +      +      +  a   +      +      +      +      +      + 
    1.4200m   21.123m +      +      +a     +      +      +      +      +      + 
    1.4300m   17.544m +      +    a +      +      +      +      +      +      + 
    1.4400m   13.964m +      +  a   +      +      +      +      +      +      + 
    1.4500m   10.384m +      a      +      +      +      +      +      +      + 
    1.4600m    6.734m +    a +      +      +      +      +      +      +      + 
    1.4700m    3.553m + a    +      +      +      +      +      +      +      + 
    1.4800m    2.182m + a    +      +      +      +      +      +      +      + 
    1.4900m  811.228u +a     +      +      +      +      +      +      +      + 
    1.5000m    6.045p-a------+------+------+------+------+------+------+------+-
    1.5100m    6.459p a      +      +      +      +      +      +      +      + 
    1.5200m    6.871p a      +      +      +      +      +      +      +      + 
    1.5300m    7.279p a      +      +      +      +      +      +      +      + 
    1.5400m    7.684p a      +      +      +      +      +      +      +      + 
    1.5500m    8.080p a      +      +      +      +      +      +      +      + 
    1.5600m    8.471p a      +      +      +      +      +      +      +      + 
    1.5700m    8.834p a      +      +      +      +      +      +      +      + 
    1.5800m    9.188p a      +      +      +      +      +      +      +      + 
    1.5900m    9.542p a      +      +      +      +      +      +      +      + 
    1.6000m    9.895p-a------+------+------+------+------+------+------+------+-
    1.6100m   10.244p a      +      +      +      +      +      +      +      + 
    1.6200m   10.527p a      +      +      +      +      +      +      +      + 
    1.6300m   10.809p a      +      +      +      +      +      +      +      + 
    1.6400m   11.092p a      +      +      +      +      +      +      +      + 
    1.6500m   11.375p a      +      +      +      +      +      +      +      + 
    1.6600m   11.565p a      +      +      +      +      +      +      +      + 
    1.6700m   11.755p a      +      +      +      +      +      +      +      + 
    1.6800m   11.945p a      +      +      +      +      +      +      +      + 
    1.6900m   12.135p a      +      +      +      +      +      +      +      + 
    1.7000m   12.299p-a------+------+------+------+------+------+------+------+-
    1.7100m   12.410p a      +      +      +      +      +      +      +      + 
    1.7200m   12.492p a      +      +      +      +      +      +      +      + 
    1.7300m   12.535p a      +      +      +      +      +      +      +      + 
    1.7400m   12.578p a      +      +      +      +      +      +      +      + 
    1.7500m   12.621p a      +      +      +      +      +      +      +      + 
    1.7600m   12.555p a      +      +      +      +      +      +      +      + 
    1.7700m   12.489p a      +      +      +      +      +      +      +      + 
    1.7800m   12.424p a      +      +      +      +      +      +      +      + 
    1.7900m   12.358p a      +      +      +      +      +      +      +      + 
    1.8000m   12.292p-a------+------+------+------+------+------+------+------+-
    1.8100m   12.141p a      +      +      +      +      +      +      +      + 
    1.8200m   11.974p a      +      +      +      +      +      +      +      + 
    1.8300m   11.765p a      +      +      +      +      +      +      +      + 
    1.8400m   11.557p a      +      +      +      +      +      +      +      + 
    1.8500m   11.348p a      +      +      +      +      +      +      +      + 
    1.8600m   11.053p a      +      +      +      +      +      +      +      + 
    1.8700m   10.758p a      +      +      +      +      +      +      +      + 
    1.8800m   10.463p a      +      +      +      +      +      +      +      + 
    1.8900m   10.168p a      +      +      +      +      +      +      +      + 
    1.9000m    9.873p-a------+------+------+------+------+------+------+------+-
    1.9100m    9.534p a      +      +      +      +      +      +      +      + 
    1.9200m    9.180p a      +      +      +      +      +      +      +      + 
    1.9300m    8.793p a      +      +      +      +      +      +      +      + 
    1.9400m    8.399p a      +      +      +      +      +      +      +      + 
    1.9500m    8.004p a      +      +      +      +      +      +      +      + 
    1.9600m    7.610p a      +      +      +      +      +      +      +      + 
    1.9700m    7.216p a      +      +      +      +      +      +      +      + 
    1.9800m    6.822p a      +      +      +      +      +      +      +      + 
    1.9900m    6.415p a      +      +      +      +      +      +      +      + 
    2.0000m    6.002p-a------+------+------+------+------+------+------+------+-
    2.0100m  166.759n a      +      +      +      +      +      +      +      + 
    2.0200m    1.481m +a     +      +      +      +      +      +      +      + 
    2.0300m    4.967m +  a   +      +      +      +      +      +      +      + 
    2.0400m    8.751m +     a+      +      +      +      +      +      +      + 
    2.0500m   12.554m +      + a    +      +      +      +      +      +      + 
    2.0600m   16.226m +      +   a  +      +      +      +      +      +      + 
    2.0700m   19.899m +      +      a      +      +      +      +      +      + 
    2.0800m   23.312m +      +      + a    +      +      +      +      +      + 
    2.0900m   26.370m +      +      +   a  +      +      +      +      +      + 
    2.1000m   29.427m-+------+------+------a------+------+------+------+------+-
    2.1100m   32.484m +      +      +      + a    +      +      +      +      + 
    2.1200m   35.541m +      +      +      +   a  +      +      +      +      + 
    2.1300m   38.598m +      +      +      +     a+      +      +      +      + 
    2.1400m   41.655m +      +      +      +      +a     +      +      +      + 
    2.1500m   44.210m +      +      +      +      +  a   +      +      +      + 
    2.1600m   46.399m +      +      +      +      +   a  +      +      +      + 
    2.1700m   48.320m +      +      +      +      +     a+      +      +      + 
    2.1800m   50.167m +      +      +      +      +      a      +      +      + 
    2.1900m   51.172m +      +      +      +      +      +a     +      +      + 
    2.2000m   52.066m-+------+------+------+------+------+a-----+------+------+-
    2.2100m   52.961m +      +      +      +      +      + a    +      +      + 
    2.2200m   53.855m +      +      +      +      +      +  a   +      +      + 
    2.2300m   54.749m +      +      +      +      +      +  a   +      +      + 
    2.2400m   55.644m +      +      +      +      +      +   a  +      +      + 
    2.2500m   55.840m +      +      +      +      +      +   a  +      +      + 
    2.2600m   55.610m +      +      +      +      +      +   a  +      +      + 
    2.2700m   55.110m +      +      +      +      +      +   a  +      +      + 
    2.2800m   54.498m +      +      +      +      +      +  a   +      +      + 
    2.2900m   53.022m +      +      +      +      +      + a    +      +      + 
    2.3000m   51.536m-+------+------+------+------+------+a-----+------+------+-
    2.3100m   50.050m +      +      +      +      +      a      +      +      + 
    2.3200m   48.564m +      +      +      +      +     a+      +      +      + 
    2.3300m   47.078m +      +      +      +      +    a +      +      +      + 
    2.3400m   45.204m +      +      +      +      +   a  +      +      +      + 
    2.3500m   42.931m +      +      +      +      + a    +      +      +      + 
    2.3600m   40.276m +      +      +      +      a      +      +      +      + 
    2.3700m   37.621m +      +      +      +    a +      +      +      +      + 
    2.3800m   34.731m +      +      +      +  a   +      +      +      +      + 
    2.3900m   31.690m +      +      +      +a     +      +      +      +      + 
    2.4000m   28.292m-+------+------+-----a+------+------+------+------+------+-
    2.4100m   24.730m +      +      +  a   +      +      +      +      +      + 
    2.4200m   21.167m +      +      +a     +      +      +      +      +      + 
    2.4300m   17.604m +      +    a +      +      +      +      +      +      + 
    2.4400m   14.041m +      +  a   +      +      +      +      +      +      + 
    2.4500m   10.478m +      a      +      +      +      +      +      +      + 
    2.4600m    6.794m +    a +      +      +      +      +      +      +      + 
    2.4700m    3.848m +  a   +      +      +      +      +      +      +      + 
    2.4800m    2.259m + a    +      +      +      +      +      +      +      + 
    2.4900m  671.010u a      +      +      +      +      +      +      +      + 
    2.5000m    6.045p-a------+------+------+------+------+------+------+------+-
    2.5100m    6.458p a      +      +      +      +      +      +      +      + 
    2.5200m    6.868p a      +      +      +      +      +      +      +      + 
    2.5300m    7.277p a      +      +      +      +      +      +      +      + 
    2.5400m    7.684p a      +      +      +      +      +      +      +      + 
    2.5500m    8.077p a      +      +      +      +      +      +      +      + 
    2.5600m    8.469p a      +      +      +      +      +      +      +      + 
    2.5700m    8.844p a      +      +      +      +      +      +      +      + 
    2.5800m    9.209p a      +      +      +      +      +      +      +      + 
    2.5900m    9.574p a      +      +      +      +      +      +      +      + 
    2.6000m    9.885p-a------+------+------+------+------+------+------+------+-
    2.6100m   10.183p a      +      +      +      +      +      +      +      + 
    2.6200m   10.481p a      +      +      +      +      +      +      +      + 
    2.6300m   10.779p a      +      +      +      +      +      +      +      + 
    2.6400m   11.077p a      +      +      +      +      +      +      +      + 
    2.6500m   11.375p a      +      +      +      +      +      +      +      + 
    2.6600m   11.567p a      +      +      +      +      +      +      +      + 
    2.6700m   11.759p a      +      +      +      +      +      +      +      + 
    2.6800m   11.952p a      +      +      +      +      +      +      +      + 
    2.6900m   12.144p a      +      +      +      +      +      +      +      + 
    2.7000m   12.296p-a------+------+------+------+------+------+------+------+-
    2.7100m   12.412p a      +      +      +      +      +      +      +      + 
    2.7200m   12.486p a      +      +      +      +      +      +      +      + 
    2.7300m   12.531p a      +      +      +      +      +      +      +      + 
    2.7400m   12.576p a      +      +      +      +      +      +      +      + 
    2.7500m   12.621p a      +      +      +      +      +      +      +      + 
    2.7600m   12.555p a      +      +      +      +      +      +      +      + 
    2.7700m   12.489p a      +      +      +      +      +      +      +      + 
    2.7800m   12.423p a      +      +      +      +      +      +      +      + 
    2.7900m   12.357p a      +      +      +      +      +      +      +      + 
    2.8000m   12.291p-a------+------+------+------+------+------+------+------+-
    2.8100m   12.141p a      +      +      +      +      +      +      +      + 
    2.8200m   11.974p a      +      +      +      +      +      +      +      + 
    2.8300m   11.765p a      +      +      +      +      +      +      +      + 
    2.8400m   11.556p a      +      +      +      +      +      +      +      + 
    2.8500m   11.348p a      +      +      +      +      +      +      +      + 
    2.8600m   11.053p a      +      +      +      +      +      +      +      + 
    2.8700m   10.758p a      +      +      +      +      +      +      +      + 
    2.8800m   10.463p a      +      +      +      +      +      +      +      + 
    2.8900m   10.168p a      +      +      +      +      +      +      +      + 
    2.9000m    9.873p-a------+------+------+------+------+------+------+------+-
    2.9100m    9.534p a      +      +      +      +      +      +      +      + 
    2.9200m    9.180p a      +      +      +      +      +      +      +      + 
    2.9300m    8.793p a      +      +      +      +      +      +      +      + 
    2.9400m    8.398p a      +      +      +      +      +      +      +      + 
    2.9500m    8.004p a      +      +      +      +      +      +      +      + 
    2.9600m    7.610p a      +      +      +      +      +      +      +      + 
    2.9700m    7.216p a      +      +      +      +      +      +      +      + 
    2.9800m    6.822p a      +      +      +      +      +      +      +      + 
    2.9900m    6.415p a      +      +      +      +      +      +      +      + 
    3.0000m    6.002p-a------+------+------+------+------+------+------+------+-
    3.0100m  209.911n a      +      +      +      +      +      +      +      + 
    3.0200m    1.520m +a     +      +      +      +      +      +      +      + 
    3.0300m    5.022m +   a  +      +      +      +      +      +      +      + 
    3.0400m    8.808m +     a+      +      +      +      +      +      +      + 
    3.0500m   12.609m +      + a    +      +      +      +      +      +      + 
    3.0600m   16.282m +      +   a  +      +      +      +      +      +      + 
    3.0700m   19.955m +      +      a      +      +      +      +      +      + 
    3.0800m   23.376m +      +      + a    +      +      +      +      +      + 
    3.0900m   26.427m +      +      +   a  +      +      +      +      +      + 
    3.1000m   29.479m-+------+------+------a------+------+------+------+------+-
    3.1100m   32.530m +      +      +      + a    +      +      +      +      + 
    3.1200m   35.582m +      +      +      +   a  +      +      +      +      + 
    3.1300m   38.633m +      +      +      +     a+      +      +      +      + 
    3.1400m   41.685m +      +      +      +      +a     +      +      +      + 
    3.1500m   44.268m +      +      +      +      +  a   +      +      +      + 
    3.1600m   46.466m +      +      +      +      +    a +      +      +      + 
    3.1700m   48.376m +      +      +      +      +     a+      +      +      + 
    3.1800m   50.242m +      +      +      +      +      a      +      +      + 
    3.1900m   51.188m +      +      +      +      +      +a     +      +      + 
    3.2000m   52.102m-+------+------+------+------+------+a-----+------+------+-
    3.2100m   53.017m +      +      +      +      +      + a    +      +      + 
    3.2200m   53.931m +      +      +      +      +      +  a   +      +      + 
    3.2300m   54.845m +      +      +      +      +      +  a   +      +      + 
    3.2400m   55.760m +      +      +      +      +      +   a  +      +      + 
    3.2500m   55.898m +      +      +      +      +      +   a  +      +      + 
    3.2600m   55.651m +      +      +      +      +      +   a  +      +      + 
    3.2700m   55.175m +      +      +      +      +      +   a  +      +      + 
    3.2800m   54.531m +      +      +      +      +      +  a   +      +      + 
    3.2900m   53.136m +      +      +      +      +      + a    +      +      + 
    3.3000m   51.620m-+------+------+------+------+------+a-----+------+------+-
    3.3100m   50.104m +      +      +      +      +      a      +      +      + 
    3.3200m   48.588m +      +      +      +      +     a+      +      +      + 
    3.3300m   47.071m +      +      +      +      +    a +      +      +      + 
    3.3400m   45.274m +      +      +      +      +   a  +      +      +      + 
    3.3500m   42.988m +      +      +      +      + a    +      +      +      + 
    3.3600m   40.352m +      +      +      +      a      +      +      +      + 
    3.3700m   37.716m +      +      +      +    a +      +      +      +      + 
    3.3800m   34.777m +      +      +      +  a   +      +      +      +      + 
    3.3900m   31.770m +      +      +      +a     +      +      +      +      + 
    3.4000m   28.286m-+------+------+-----a+------+------+------+------+------+-
    3.4100m   24.745m +      +      +  a   +      +      +      +      +      + 
    3.4200m   21.203m +      +      +a     +      +      +      +      +      + 
    3.4300m   17.661m +      +    a +      +      +      +      +      +      + 
    3.4400m   14.120m +      +  a   +      +      +      +      +      +      + 
    3.4500m   10.578m +      a      +      +      +      +      +      +      + 
    3.4600m    6.846m +    a +      +      +      +      +      +      +      + 
    3.4700m    3.080m + a    +      +      +      +      +      +      +      + 
    3.4800m    1.557m +a     +      +      +      +      +      +      +      + 
    3.4900m  411.937u a      +      +      +      +      +      +      +      + 
    3.5000m    6.044p-a------+------+------+------+------+------+------+------+-
    3.5100m    6.459p a      +      +      +      +      +      +      +      + 
    3.5200m    6.867p a      +      +      +      +      +      +      +      + 
    3.5300m    7.275p a      +      +      +      +      +      +      +      + 
    3.5400m    7.683p a      +      +      +      +      +      +      +      + 
    3.5500m    8.077p a      +      +      +      +      +      +      +      + 
    3.5600m    8.465p a      +      +      +      +      +      +      +      + 
    3.5700m    8.851p a      +      +      +      +      +      +      +      + 
    3.5800m    9.208p a      +      +      +      +      +      +      +      + 
    3.5900m    9.565p a      +      +      +      +      +      +      +      + 
    3.6000m    9.914p-a------+------+------+------+------+------+------+------+-
    3.6100m   10.206p a      +      +      +      +      +      +      +      + 
    3.6200m   10.498p a      +      +      +      +      +      +      +      + 
    3.6300m   10.790p a      +      +      +      +      +      +      +      + 
    3.6400m   11.082p a      +      +      +      +      +      +      +      + 
    3.6500m   11.374p a      +      +      +      +      +      +      +      + 
    3.6600m   11.565p a      +      +      +      +      +      +      +      + 
    3.6700m   11.755p a      +      +      +      +      +      +      +      + 
    3.6800m   11.946p a      +      +      +      +      +      +      +      + 
    3.6900m   12.136p a      +      +      +      +      +      +      +      + 
    3.7000m   12.298p-a------+------+------+------+------+------+------+------+-
    3.7100m   12.410p a      +      +      +      +      +      +      +      + 
    3.7200m   12.491p a      +      +      +      +      +      +      +      + 
    3.7300m   12.534p a      +      +      +      +      +      +      +      + 
    3.7400m   12.578p a      +      +      +      +      +      +      +      + 
    3.7500m   12.621p a      +      +      +      +      +      +      +      + 
    3.7600m   12.555p a      +      +      +      +      +      +      +      + 
    3.7700m   12.489p a      +      +      +      +      +      +      +      + 
    3.7800m   12.423p a      +      +      +      +      +      +      +      + 
    3.7900m   12.357p a      +      +      +      +      +      +      +      + 
    3.8000m   12.291p-a------+------+------+------+------+------+------+------+-
    3.8100m   12.141p a      +      +      +      +      +      +      +      + 
    3.8200m   11.974p a      +      +      +      +      +      +      +      + 
    3.8300m   11.765p a      +      +      +      +      +      +      +      + 
    3.8400m   11.556p a      +      +      +      +      +      +      +      + 
    3.8500m   11.347p a      +      +      +      +      +      +      +      + 
    3.8600m   11.052p a      +      +      +      +      +      +      +      + 
    3.8700m   10.757p a      +      +      +      +      +      +      +      + 
    3.8800m   10.463p a      +      +      +      +      +      +      +      + 
    3.8900m   10.168p a      +      +      +      +      +      +      +      + 
    3.9000m    9.873p-a------+------+------+------+------+------+------+------+-
    3.9100m    9.533p a      +      +      +      +      +      +      +      + 
    3.9200m    9.180p a      +      +      +      +      +      +      +      + 
    3.9300m    8.792p a      +      +      +      +      +      +      +      + 
    3.9400m    8.398p a      +      +      +      +      +      +      +      + 
    3.9500m    8.004p a      +      +      +      +      +      +      +      + 
    3.9600m    7.610p a      +      +      +      +      +      +      +      + 
    3.9700m    7.216p a      +      +      +      +      +      +      +      + 
    3.9800m    6.822p a      +      +      +      +      +      +      +      + 
    3.9900m    6.415p a      +      +      +      +      +      +      +      + 
    4.0000m    6.003p-a------+------+------+------+------+------+------+------+-
    4.0100m  263.169n a      +      +      +      +      +      +      +      + 
    4.0200m    1.558m +a     +      +      +      +      +      +      +      + 
    4.0300m    5.076m +   a  +      +      +      +      +      +      +      + 
    4.0400m    8.864m +     a+      +      +      +      +      +      +      + 
    4.0500m   12.664m +      + a    +      +      +      +      +      +      + 
    4.0600m   16.336m +      +   a  +      +      +      +      +      +      + 
    4.0700m   20.008m +      +      a      +      +      +      +      +      + 
    4.0800m   23.420m +      +      + a    +      +      +      +      +      + 
    4.0900m   26.406m +      +      +   a  +      +      +      +      +      + 
    4.1000m   29.393m-+------+------+------a------+------+------+------+------+-
    4.1100m   32.380m +      +      +      + a    +      +      +      +      + 
    4.1200m   35.366m +      +      +      +   a  +      +      +      +      + 
    4.1300m   38.353m +      +      +      +     a+      +      +      +      + 
    4.1400m   41.340m +      +      +      +      +a     +      +      +      + 
    4.1500m   44.326m +      +      +      +      +  a   +      +      +      + 
    4.1600m   46.182m +      +      +      +      +   a  +      +      +      + 
    4.1700m   48.037m +      +      +      +      +     a+      +      +      + 
    4.1800m   49.892m +      +      +      +      +      a      +      +      + 
    4.1900m   51.748m +      +      +      +      +      +a     +      +      + 
    4.2000m   53.020m-+------+------+------+------+------+-a----+------+------+-
    4.2100m   54.162m +      +      +      +      +      +  a   +      +      + 
    4.2200m   54.687m +      +      +      +      +      +  a   +      +      + 
    4.2300m   55.103m +      +      +      +      +      +   a  +      +      + 
    4.2400m   55.519m +      +      +      +      +      +   a  +      +      + 
    4.2500m   55.935m +      +      +      +      +      +   a  +      +      + 
    4.2600m   55.242m +      +      +      +      +      +   a  +      +      + 
    4.2700m   54.548m +      +      +      +      +      +  a   +      +      + 
    4.2800m   53.854m +      +      +      +      +      +  a   +      +      + 
    4.2900m   53.160m +      +      +      +      +      + a    +      +      + 
    4.3000m   52.467m-+------+------+------+------+------+-a----+------+------+-
    4.3100m   50.949m +      +      +      +      +      +a     +      +      + 
    4.3200m   49.275m +      +      +      +      +     a+      +      +      + 
    4.3300m   47.195m +      +      +      +      +    a +      +      +      + 
    4.3400m   45.115m +      +      +      +      +   a  +      +      +      + 
    4.3500m   43.034m +      +      +      +      + a    +      +      +      + 
    4.3600m   40.138m +      +      +      +      a      +      +      +      + 
    4.3700m   37.241m +      +      +      +    a +      +      +      +      + 
    4.3800m   34.345m +      +      +      +  a   +      +      +      +      + 
    4.3900m   31.448m +      +      +      +a     +      +      +      +      + 
    4.4000m   28.552m-+------+------+-----a+------+------+------+------+------+-
    4.4100m   25.234m +      +      +   a  +      +      +      +      +      + 
    4.4200m   21.781m +      +      +a     +      +      +      +      +      + 
    4.4300m   18.171m +      +     a+      +      +      +      +      +      + 
    4.4400m   14.488m +      +  a   +      +      +      +      +      +      + 
    4.4500m   10.706m +      a      +      +      +      +      +      +      + 
    4.4600m    6.925m +    a +      +      +      +      +      +      +      + 
    4.4700m    3.165m + a    +      +      +      +      +      +      +      + 
    4.4800m    1.844m +a     +      +      +      +      +      +      +      + 
    4.4900m  922.053u +a     +      +      +      +      +      +      +      + 
    4.5000m    6.044p-a------+------+------+------+------+------+------+------+-
    4.5100m    6.457p a      +      +      +      +      +      +      +      + 
    4.5200m    6.868p a      +      +      +      +      +      +      +      + 
    4.5300m    7.276p a      +      +      +      +      +      +      +      + 
    4.5400m    7.684p a      +      +      +      +      +      +      +      + 
    4.5500m    8.074p a      +      +      +      +      +      +      +      + 
    4.5600m    8.464p a      +      +      +      +      +      +      +      + 
    4.5700m    8.849p a      +      +      +      +      +      +      +      + 
    4.5800m    9.207p a      +      +      +      +      +      +      +      + 
    4.5900m    9.565p a      +      +      +      +      +      +      +      + 
    4.6000m    9.909p-a------+------+------+------+------+------+------+------+-
    4.6100m   10.202p a      +      +      +      +      +      +      +      + 
    4.6200m   10.495p a      +      +      +      +      +      +      +      + 
    4.6300m   10.788p a      +      +      +      +      +      +      +      + 
    4.6400m   11.081p a      +      +      +      +      +      +      +      + 
    4.6500m   11.374p a      +      +      +      +      +      +      +      + 
    4.6600m   11.564p a      +      +      +      +      +      +      +      + 
    4.6700m   11.755p a      +      +      +      +      +      +      +      + 
    4.6800m   11.946p a      +      +      +      +      +      +      +      + 
    4.6900m   12.137p a      +      +      +      +      +      +      +      + 
    4.7000m   12.297p-a------+------+------+------+------+------+------+------+-
    4.7100m   12.409p a      +      +      +      +      +      +      +      + 
    4.7200m   12.489p a      +      +      +      +      +      +      +      + 
    4.7300m   12.533p a      +      +      +      +      +      +      +      + 
    4.7400m   12.577p a      +      +      +      +      +      +      +      + 
    4.7500m   12.620p a      +      +      +      +      +      +      +      + 
    4.7600m   12.554p a      +      +      +      +      +      +      +      + 
    4.7700m   12.488p a      +      +      +      +      +      +      +      + 
    4.7800m   12.422p a      +      +      +      +      +      +      +      + 
    4.7900m   12.356p a      +      +      +      +      +      +      +      + 
    4.8000m   12.290p-a------+------+------+------+------+------+------+------+-
    4.8100m   12.140p a      +      +      +      +      +      +      +      + 
    4.8200m   11.973p a      +      +      +      +      +      +      +      + 
    4.8300m   11.764p a      +      +      +      +      +      +      +      + 
    4.8400m   11.555p a      +      +      +      +      +      +      +      + 
    4.8500m   11.347p a      +      +      +      +      +      +      +      + 
    4.8600m   11.052p a      +      +      +      +      +      +      +      + 
    4.8700m   10.757p a      +      +      +      +      +      +      +      + 
    4.8800m   10.462p a      +      +      +      +      +      +      +      + 
    4.8900m   10.167p a      +      +      +      +      +      +      +      + 
    4.9000m    9.872p-a------+------+------+------+------+------+------+------+-
    4.9100m    9.533p a      +      +      +      +      +      +      +      + 
    4.9200m    9.179p a      +      +      +      +      +      +      +      + 
    4.9300m    8.792p a      +      +      +      +      +      +      +      + 
    4.9400m    8.397p a      +      +      +      +      +      +      +      + 
    4.9500m    8.003p a      +      +      +      +      +      +      +      + 
    4.9600m    7.609p a      +      +      +      +      +      +      +      + 
    4.9700m    7.215p a      +      +      +      +      +      +      +      + 
    4.9800m    6.821p a      +      +      +      +      +      +      +      + 
    4.9900m    6.415p a      +      +      +      +      +      +      +      + 
    5.0000m    6.003p-a------+------+------+------+------+------+------+------+-
    5.0100m  368.269n a      +      +      +      +      +      +      +      + 
    5.0200m    1.616m +a     +      +      +      +      +      +      +      + 
    5.0300m    5.156m +   a  +      +      +      +      +      +      +      + 
    5.0400m    8.947m +     a+      +      +      +      +      +      +      + 
    5.0500m   12.745m +      + a    +      +      +      +      +      +      + 
    5.0600m   16.415m +      +   a  +      +      +      +      +      +      + 
    5.0700m   20.085m +      +      a      +      +      +      +      +      + 
    5.0800m   23.532m +      +      + a    +      +      +      +      +      + 
    5.0900m   26.514m +      +      +    a +      +      +      +      +      + 
    5.1000m   29.497m-+------+------+------a------+------+------+------+------+-
    5.1100m   32.479m +      +      +      + a    +      +      +      +      + 
    5.1200m   35.462m +      +      +      +   a  +      +      +      +      + 
    5.1300m   38.444m +      +      +      +     a+      +      +      +      + 
    5.1400m   41.427m +      +      +      +      +a     +      +      +      + 
    5.1500m   44.409m +      +      +      +      +  a   +      +      +      + 
    5.1600m   46.264m +      +      +      +      +   a  +      +      +      + 
    5.1700m   48.118m +      +      +      +      +     a+      +      +      + 
    5.1800m   49.972m +      +      +      +      +      a      +      +      + 
    5.1900m   51.827m +      +      +      +      +      +a     +      +      + 
    5.2000m   53.103m-+------+------+------+------+------+-a----+------+------+-
    5.2100m   54.243m +      +      +      +      +      +  a   +      +      + 
    5.2200m   54.772m +      +      +      +      +      +  a   +      +      + 
    5.2300m   55.187m +      +      +      +      +      +   a  +      +      + 
    5.2400m   55.602m +      +      +      +      +      +   a  +      +      + 
    5.2500m   56.017m +      +      +      +      +      +   a  +      +      + 
    5.2600m   55.323m +      +      +      +      +      +   a  +      +      + 
    5.2700m   54.630m +      +      +      +      +      +  a   +      +      + 
    5.2800m   53.936m +      +      +      +      +      +  a   +      +      + 
    5.2900m   53.242m +      +      +      +      +      + a    +      +      + 
    5.3000m   52.548m-+------+------+------+------+------+-a----+------+------+-
    5.3100m   51.030m +      +      +      +      +      +a     +      +      + 
    5.3200m   49.357m +      +      +      +      +      a      +      +      + 
    5.3300m   47.276m +      +      +      +      +    a +      +      +      + 
    5.3400m   45.196m +      +      +      +      +   a  +      +      +      + 
    5.3500m   43.116m +      +      +      +      + a    +      +      +      + 
    5.3600m   40.219m +      +      +      +      a      +      +      +      + 
    5.3700m   37.322m +      +      +      +    a +      +      +      +      + 
    5.3800m   34.426m +      +      +      +  a   +      +      +      +      + 
    5.3900m   31.529m +      +      +      +a     +      +      +      +      + 
    5.4000m   28.632m-+------+------+-----a+------+------+------+------+------+-
    5.4100m   25.314m +      +      +   a  +      +      +      +      +      + 
    5.4200m   21.861m +      +      +a     +      +      +      +      +      + 
    5.4300m   18.251m +      +     a+      +      +      +      +      +      + 
    5.4400m   14.567m +      +  a   +      +      +      +      +      +      + 
    5.4500m   10.785m +      +a     +      +      +      +      +      +      + 
    5.4600m    7.003m +    a +      +      +      +      +      +      +      + 
    5.4700m    3.239m + a    +      +      +      +      +      +      +      + 
    5.4800m    1.896m +a     +      +      +      +      +      +      +      + 
    5.4900m  947.860u +a     +      +      +      +      +      +      +      + 
    5.5000m    6.043p-a------+------+------+------+------+------+------+------+-
    5.5100m    6.457p a      +      +      +      +      +      +      +      + 
    5.5200m    6.868p a      +      +      +      +      +      +      +      + 
    5.5300m    7.276p a      +      +      +      +      +      +      +      + 
    5.5400m    7.682p a      +      +      +      +      +      +      +      + 
    5.5500m    8.073p a      +      +      +      +      +      +      +      + 
    5.5600m    8.465p a      +      +      +      +      +      +      +      + 
    5.5700m    8.845p a      +      +      +      +      +      +      +      + 
    5.5800m    9.207p a      +      +      +      +      +      +      +      + 
    5.5900m    9.569p a      +      +      +      +      +      +      +      + 
    5.6000m    9.894p-a------+------+------+------+------+------+------+------+-
    5.6100m   10.189p a      +      +      +      +      +      +      +      + 
    5.6200m   10.485p a      +      +      +      +      +      +      +      + 
    5.6300m   10.781p a      +      +      +      +      +      +      +      + 
    5.6400m   11.077p a      +      +      +      +      +      +      +      + 
    5.6500m   11.373p a      +      +      +      +      +      +      +      + 
    5.6600m   11.564p a      +      +      +      +      +      +      +      + 
    5.6700m   11.756p a      +      +      +      +      +      +      +      + 
    5.6800m   11.948p a      +      +      +      +      +      +      +      + 
    5.6900m   12.140p a      +      +      +      +      +      +      +      + 
    5.7000m   12.295p-a------+------+------+------+------+------+------+------+-
    5.7100m   12.409p a      +      +      +      +      +      +      +      + 
    5.7200m   12.486p a      +      +      +      +      +      +      +      + 
    5.7300m   12.530p a      +      +      +      +      +      +      +      + 
    5.7400m   12.575p a      +      +      +      +      +      +      +      + 
    5.7500m   12.619p a      +      +      +      +      +      +      +      + 
    5.7600m   12.553p a      +      +      +      +      +      +      +      + 
    5.7700m   12.487p a      +      +      +      +      +      +      +      + 
    5.7800m   12.421p a      +      +      +      +      +      +      +      + 
    5.7900m   12.355p a      +      +      +      +      +      +      +      + 
    5.8000m   12.290p-a------+------+------+------+------+------+------+------+-
    5.8100m   12.139p a      +      +      +      +      +      +      +      + 
    5.8200m   11.972p a      +      +      +      +      +      +      +      + 
    5.8300m   11.763p a      +      +      +      +      +      +      +      + 
    5.8400m   11.555p a      +      +      +      +      +      +      +      + 
    5.8500m   11.346p a      +      +      +      +      +      +      +      + 
    5.8600m   11.051p a      +      +      +      +      +      +      +      + 
    5.8700m   10.756p a      +      +      +      +      +      +      +      + 
    5.8800m   10.461p a      +      +      +      +      +      +      +      + 
    5.8900m   10.166p a      +      +      +      +      +      +      +      + 
    5.9000m    9.871p-a------+------+------+------+------+------+------+------+-
    5.9100m    9.532p a      +      +      +      +      +      +      +      + 
    5.9200m    9.178p a      +      +      +      +      +      +      +      + 
    5.9300m    8.791p a      +      +      +      +      +      +      +      + 
    5.9400m    8.397p a      +      +      +      +      +      +      +      + 
    5.9500m    8.002p a      +      +      +      +      +      +      +      + 
    5.9600m    7.608p a      +      +      +      +      +      +      +      + 
    5.9700m    7.214p a      +      +      +      +      +      +      +      + 
    5.9800m    6.820p a      +      +      +      +      +      +      +      + 
    5.9900m    6.414p a      +      +      +      +      +      +      +      + 
    6.0000m    6.004p-a------+------+------+------+------+------+------+------+-
    6.0100m  498.814n a      +      +      +      +      +      +      +      + 
    6.0200m    1.668m +a     +      +      +      +      +      +      +      + 
    6.0300m    5.228m +   a  +      +      +      +      +      +      +      + 
    6.0400m    9.020m +     a+      +      +      +      +      +      +      + 
    6.0500m   12.819m +      + a    +      +      +      +      +      +      + 
    6.0600m   16.486m +      +    a +      +      +      +      +      +      + 
    6.0700m   20.152m +      +      a      +      +      +      +      +      + 
    6.0800m   23.644m +      +      +  a   +      +      +      +      +      + 
    6.0900m   26.621m +      +      +    a +      +      +      +      +      + 
    6.1000m   29.598m-+------+------+------a------+------+------+------+------+-
    6.1100m   32.575m +      +      +      + a    +      +      +      +      + 
    6.1200m   35.552m +      +      +      +   a  +      +      +      +      + 
    6.1300m   38.529m +      +      +      +     a+      +      +      +      + 
    6.1400m   41.507m +      +      +      +      +a     +      +      +      + 
    6.1500m   44.484m +      +      +      +      +  a   +      +      +      + 
    6.1600m   46.337m +      +      +      +      +   a  +      +      +      + 
    6.1700m   48.190m +      +      +      +      +     a+      +      +      + 
    6.1800m   50.042m +      +      +      +      +      a      +      +      + 
    6.1900m   51.895m +      +      +      +      +      +a     +      +      + 
    6.2000m   53.178m-+------+------+------+------+------+-a----+------+------+-
    6.2100m   54.314m +      +      +      +      +      +  a   +      +      + 
    6.2200m   54.849m +      +      +      +      +      +  a   +      +      + 
    6.2300m   55.263m +      +      +      +      +      +   a  +      +      + 
    6.2400m   55.677m +      +      +      +      +      +   a  +      +      + 
    6.2500m   56.090m +      +      +      +      +      +   a  +      +      + 
    6.2600m   55.397m +      +      +      +      +      +   a  +      +      + 
    6.2700m   54.703m +      +      +      +      +      +  a   +      +      + 
    6.2800m   54.009m +      +      +      +      +      +  a   +      +      + 
    6.2900m   53.315m +      +      +      +      +      + a    +      +      + 
    6.3000m   52.621m-+------+------+------+------+------+-a----+------+------+-
    6.3100m   51.103m +      +      +      +      +      +a     +      +      + 
    6.3200m   49.430m +      +      +      +      +      a      +      +      + 
    6.3300m   47.349m +      +      +      +      +    a +      +      +      + 
    6.3400m   45.269m +      +      +      +      +   a  +      +      +      + 
    6.3500m   43.188m +      +      +      +      + a    +      +      +      + 
    6.3600m   40.291m +      +      +      +      a      +      +      +      + 
    6.3700m   37.395m +      +      +      +    a +      +      +      +      + 
    6.3800m   34.498m +      +      +      +  a   +      +      +      +      + 
    6.3900m   31.601m +      +      +      +a     +      +      +      +      + 
    6.4000m   28.704m-+------+------+-----a+------+------+------+------+------+-
    6.4100m   25.386m +      +      +   a  +      +      +      +      +      + 
    6.4200m   21.933m +      +      +a     +      +      +      +      +      + 
    6.4300m   18.322m +      +     a+      +      +      +      +      +      + 
    6.4400m   14.638m +      +  a   +      +      +      +      +      +      + 
    6.4500m   10.855m +      +a     +      +      +      +      +      +      + 
    6.4600m    7.073m +    a +      +      +      +      +      +      +      + 
    6.4700m    3.306m + a    +      +      +      +      +      +      +      + 
    6.4800m    1.942m +a     +      +      +      +      +      +      +      + 
    6.4900m  970.975u +a     +      +      +      +      +      +      +      + 
    6.5000m    6.042p-a------+------+------+------+------+------+------+------+-
    6.5100m    6.456p a      +      +      +      +      +      +      +      + 
    6.5200m    6.867p a      +      +      +      +      +      +      +      + 
    6.5300m    7.276p a      +      +      +      +      +      +      +      + 
    6.5400m    7.680p a      +      +      +      +      +      +      +      + 
    6.5500m    8.073p a      +      +      +      +      +      +      +      + 
    6.5600m    8.466p a      +      +      +      +      +      +      +      + 
    6.5700m    8.842p a      +      +      +      +      +      +      +      + 
    6.5800m    9.207p a      +      +      +      +      +      +      +      + 
    6.5900m    9.571p a      +      +      +      +      +      +      +      + 
    6.6000m    9.882p-a------+------+------+------+------+------+------+------+-
    6.6100m   10.180p a      +      +      +      +      +      +      +      + 
    6.6200m   10.478p a      +      +      +      +      +      +      +      + 
    6.6300m   10.776p a      +      +      +      +      +      +      +      + 
    6.6400m   11.074p a      +      +      +      +      +      +      +      + 
    6.6500m   11.372p a      +      +      +      +      +      +      +      + 
    6.6600m   11.564p a      +      +      +      +      +      +      +      + 
    6.6700m   11.757p a      +      +      +      +      +      +      +      + 
    6.6800m   11.949p a      +      +      +      +      +      +      +      + 
    6.6900m   12.141p a      +      +      +      +      +      +      +      + 
    6.7000m   12.293p-a------+------+------+------+------+------+------+------+-
    6.7100m   12.409p a      +      +      +      +      +      +      +      + 
    6.7200m   12.483p a      +      +      +      +      +      +      +      + 
    6.7300m   12.528p a      +      +      +      +      +      +      +      + 
    6.7400m   12.573p a      +      +      +      +      +      +      +      + 
    6.7500m   12.619p a      +      +      +      +      +      +      +      + 
    6.7600m   12.553p a      +      +      +      +      +      +      +      + 
    6.7700m   12.487p a      +      +      +      +      +      +      +      + 
    6.7800m   12.421p a      +      +      +      +      +      +      +      + 
    6.7900m   12.355p a      +      +      +      +      +      +      +      + 
    6.8000m   12.289p-a------+------+------+------+------+------+------+------+-
    6.8100m   12.138p a      +      +      +      +      +      +      +      + 
    6.8200m   11.971p a      +      +      +      +      +      +      +      + 
    6.8300m   11.763p a      +      +      +      +      +      +      +      + 
    6.8400m   11.554p a      +      +      +      +      +      +      +      + 
    6.8500m   11.345p a      +      +      +      +      +      +      +      + 
    6.8600m   11.050p a      +      +      +      +      +      +      +      + 
    6.8700m   10.755p a      +      +      +      +      +      +      +      + 
    6.8800m   10.460p a      +      +      +      +      +      +      +      + 
    6.8900m   10.165p a      +      +      +      +      +      +      +      + 
    6.9000m    9.870p-a------+------+------+------+------+------+------+------+-
    6.9100m    9.531p a      +      +      +      +      +      +      +      + 
    6.9200m    9.178p a      +      +      +      +      +      +      +      + 
    6.9300m    8.790p a      +      +      +      +      +      +      +      + 
    6.9400m    8.396p a      +      +      +      +      +      +      +      + 
    6.9500m    8.002p a      +      +      +      +      +      +      +      + 
    6.9600m    7.607p a      +      +      +      +      +      +      +      + 
    6.9700m    7.213p a      +      +      +      +      +      +      +      + 
    6.9800m    6.819p a      +      +      +      +      +      +      +      + 
    6.9900m    6.415p a      +      +      +      +      +      +      +      + 
    7.0000m    6.005p-a------+------+------+------+------+------+------+------+-
    7.0100m  656.043n a      +      +      +      +      +      +      +      + 
    7.0200m    1.716m +a     +      +      +      +      +      +      +      + 
    7.0300m    5.292m +   a  +      +      +      +      +      +      +      + 
    7.0400m    9.086m +     a+      +      +      +      +      +      +      + 
    7.0500m   12.886m +      + a    +      +      +      +      +      +      + 
    7.0600m   16.549m +      +    a +      +      +      +      +      +      + 
    7.0700m   20.211m +      +      a      +      +      +      +      +      + 
    7.0800m   23.756m +      +      +  a   +      +      +      +      +      + 
    7.0900m   26.726m +      +      +    a +      +      +      +      +      + 
    7.1000m   29.697m-+------+------+------a------+------+------+------+------+-
    7.1100m   32.668m +      +      +      + a    +      +      +      +      + 
    7.1200m   35.638m +      +      +      +   a  +      +      +      +      + 
    7.1300m   38.609m +      +      +      +     a+      +      +      +      + 
    7.1400m   41.579m +      +      +      +      +a     +      +      +      + 
    7.1500m   44.550m +      +      +      +      +  a   +      +      +      + 
    7.1600m   46.401m +      +      +      +      +   a  +      +      +      + 
    7.1700m   48.253m +      +      +      +      +     a+      +      +      + 
    7.1800m   50.104m +      +      +      +      +      a      +      +      + 
    7.1900m   51.955m +      +      +      +      +      +a     +      +      + 
    7.2000m   53.245m-+------+------+------+------+------+-a----+------+------+-
    7.2100m   54.378m +      +      +      +      +      +  a   +      +      + 
    7.2200m   54.919m +      +      +      +      +      +  a   +      +      + 
    7.2300m   55.332m +      +      +      +      +      +   a  +      +      + 
    7.2400m   55.744m +      +      +      +      +      +   a  +      +      + 
    7.2500m   56.156m +      +      +      +      +      +   a  +      +      + 
    7.2600m   55.462m +      +      +      +      +      +   a  +      +      + 
    7.2700m   54.768m +      +      +      +      +      +  a   +      +      + 
    7.2800m   54.074m +      +      +      +      +      +  a   +      +      + 
    7.2900m   53.381m +      +      +      +      +      + a    +      +      + 
    7.3000m   52.687m-+------+------+------+------+------+-a----+------+------+-
    7.3100m   51.169m +      +      +      +      +      +a     +      +      + 
    7.3200m   49.495m +      +      +      +      +      a      +      +      + 
    7.3300m   47.414m +      +      +      +      +    a +      +      +      + 
    7.3400m   45.334m +      +      +      +      +   a  +      +      +      + 
    7.3500m   43.253m +      +      +      +      + a    +      +      +      + 
    7.3600m   40.356m +      +      +      +      a      +      +      +      + 
    7.3700m   37.459m +      +      +      +    a +      +      +      +      + 
    7.3800m   34.563m +      +      +      +  a   +      +      +      +      + 
    7.3900m   31.666m +      +      +      +a     +      +      +      +      + 
    7.4000m   28.769m-+------+------+-----a+------+------+------+------+------+-
    7.4100m   25.450m +      +      +   a  +      +      +      +      +      + 
    7.4200m   21.997m +      +      +a     +      +      +      +      +      + 
    7.4300m   18.386m +      +     a+      +      +      +      +      +      + 
    7.4400m   14.702m +      +  a   +      +      +      +      +      +      + 
    7.4500m   10.918m +      +a     +      +      +      +      +      +      + 
    7.4600m    7.135m +    a +      +      +      +      +      +      +      + 
    7.4700m    3.365m + a    +      +      +      +      +      +      +      + 
    7.4800m    1.983m +a     +      +      +      +      +      +      +      + 
    7.4900m  991.702u +a     +      +      +      +      +      +      +      + 
    7.5000m    6.041p-a------+------+------+------+------+------+------+------+-
    7.5100m    6.455p a      +      +      +      +      +      +      +      + 
    7.5200m    6.866p a      +      +      +      +      +      +      +      + 
    7.5300m    7.275p a      +      +      +      +      +      +      +      + 
    7.5400m    7.679p a      +      +      +      +      +      +      +      + 
    7.5500m    8.072p a      +      +      +      +      +      +      +      + 
    7.5600m    8.466p a      +      +      +      +      +      +      +      + 
    7.5700m    8.840p a      +      +      +      +      +      +      +      + 
    7.5800m    9.207p a      +      +      +      +      +      +      +      + 
    7.5900m    9.574p a      +      +      +      +      +      +      +      + 
    7.6000m    9.874p-a------+------+------+------+------+------+------+------+-
    7.6100m   10.173p a      +      +      +      +      +      +      +      + 
    7.6200m   10.473p a      +      +      +      +      +      +      +      + 
    7.6300m   10.772p a      +      +      +      +      +      +      +      + 
    7.6400m   11.072p a      +      +      +      +      +      +      +      + 
    7.6500m   11.371p a      +      +      +      +      +      +      +      + 
    7.6600m   11.564p a      +      +      +      +      +      +      +      + 
    7.6700m   11.757p a      +      +      +      +      +      +      +      + 
    7.6800m   11.950p a      +      +      +      +      +      +      +      + 
    7.6900m   12.142p a      +      +      +      +      +      +      +      + 
    7.7000m   12.292p-a------+------+------+------+------+------+------+------+-
    7.7100m   12.409p a      +      +      +      +      +      +      +      + 
    7.7200m   12.481p a      +      +      +      +      +      +      +      + 
    7.7300m   12.527p a      +      +      +      +      +      +      +      + 
    7.7400m   12.572p a      +      +      +      +      +      +      +      + 
    7.7500m   12.618p a      +      +      +      +      +      +      +      + 
    7.7600m   12.552p a      +      +      +      +      +      +      +      + 
    7.7700m   12.486p a      +      +      +      +      +      +      +      + 
    7.7800m   12.420p a      +      +      +      +      +      +      +      + 
    7.7900m   12.354p a      +      +      +      +      +      +      +      + 
    7.8000m   12.288p-a------+------+------+------+------+------+------+------+-
    7.8100m   12.137p a      +      +      +      +      +      +      +      + 
    7.8200m   11.971p a      +      +      +      +      +      +      +      + 
    7.8300m   11.762p a      +      +      +      +      +      +      +      + 
    7.8400m   11.553p a      +      +      +      +      +      +      +      + 
    7.8500m   11.344p a      +      +      +      +      +      +      +      + 
    7.8600m   11.049p a      +      +      +      +      +      +      +      + 
    7.8700m   10.754p a      +      +      +      +      +      +      +      + 
    7.8800m   10.459p a      +      +      +      +      +      +      +      + 
    7.8900m   10.164p a      +      +      +      +      +      +      +      + 
    7.9000m    9.870p-a------+------+------+------+------+------+------+------+-
    7.9100m    9.530p a      +      +      +      +      +      +      +      + 
    7.9200m    9.177p a      +      +      +      +      +      +      +      + 
    7.9300m    8.789p a      +      +      +      +      +      +      +      + 
    7.9400m    8.395p a      +      +      +      +      +      +      +      + 
    7.9500m    8.001p a      +      +      +      +      +      +      +      + 
    7.9600m    7.607p a      +      +      +      +      +      +      +      + 
    7.9700m    7.213p a      +      +      +      +      +      +      +      + 
    7.9800m    6.818p a      +      +      +      +      +      +      +      + 
    7.9900m    6.415p a      +      +      +      +      +      +      +      + 
    8.0000m    6.007p-a------+------+------+------+------+------+------+------+-
    8.0100m  839.962n a      +      +      +      +      +      +      +      + 
    8.0200m    1.759m +a     +      +      +      +      +      +      +      + 
    8.0300m    5.350m +   a  +      +      +      +      +      +      +      + 
    8.0400m    9.145m +     a+      +      +      +      +      +      +      + 
    8.0500m   12.948m +      + a    +      +      +      +      +      +      + 
    8.0600m   16.605m +      +    a +      +      +      +      +      +      + 
    8.0700m   20.261m +      +      a      +      +      +      +      +      + 
    8.0800m   23.866m +      +      +  a   +      +      +      +      +      + 
    8.0900m   26.829m +      +      +    a +      +      +      +      +      + 
    8.1000m   29.793m-+------+------+------a------+------+------+------+------+-
    8.1100m   32.756m +      +      +      + a    +      +      +      +      + 
    8.1200m   35.720m +      +      +      +   a  +      +      +      +      + 
    8.1300m   38.683m +      +      +      +     a+      +      +      +      + 
    8.1400m   41.646m +      +      +      +      +a     +      +      +      + 
    8.1500m   44.610m +      +      +      +      +  a   +      +      +      + 
    8.1600m   46.459m +      +      +      +      +    a +      +      +      + 
    8.1700m   48.309m +      +      +      +      +     a+      +      +      + 
    8.1800m   50.158m +      +      +      +      +      a      +      +      + 
    8.1900m   52.008m +      +      +      +      +      +a     +      +      + 
    8.2000m   53.305m-+------+------+------+------+------+-a----+------+------+-
    8.2100m   54.435m +      +      +      +      +      +  a   +      +      + 
    8.2200m   54.984m +      +      +      +      +      +  a   +      +      + 
    8.2300m   55.394m +      +      +      +      +      +   a  +      +      + 
    8.2400m   55.804m +      +      +      +      +      +   a  +      +      + 
    8.2500m   56.215m +      +      +      +      +      +   a  +      +      + 
    8.2600m   55.521m +      +      +      +      +      +   a  +      +      + 
    8.2700m   54.827m +      +      +      +      +      +  a   +      +      + 
    8.2800m   54.133m +      +      +      +      +      +  a   +      +      + 
    8.2900m   53.439m +      +      +      +      +      + a    +      +      + 
    8.3000m   52.745m-+------+------+------+------+------+-a----+------+------+-
    8.3100m   51.227m +      +      +      +      +      +a     +      +      + 
    8.3200m   49.553m +      +      +      +      +      a      +      +      + 
    8.3300m   47.473m +      +      +      +      +    a +      +      +      + 
    8.3400m   45.392m +      +      +      +      +   a  +      +      +      + 
    8.3500m   43.311m +      +      +      +      + a    +      +      +      + 
    8.3600m   40.414m +      +      +      +      a      +      +      +      + 
    8.3700m   37.517m +      +      +      +    a +      +      +      +      + 
    8.3800m   34.621m +      +      +      +  a   +      +      +      +      + 
    8.3900m   31.724m +      +      +      +a     +      +      +      +      + 
    8.4000m   28.827m-+------+------+-----a+------+------+------+------+------+-
    8.4100m   25.508m +      +      +   a  +      +      +      +      +      + 
    8.4200m   22.054m +      +      +a     +      +      +      +      +      + 
    8.4300m   18.443m +      +     a+      +      +      +      +      +      + 
    8.4400m   14.759m +      +  a   +      +      +      +      +      +      + 
    8.4500m   10.975m +      +a     +      +      +      +      +      +      + 
    8.4600m    7.191m +    a +      +      +      +      +      +      +      + 
    8.4700m    3.419m + a    +      +      +      +      +      +      +      + 
    8.4800m    2.021m +a     +      +      +      +      +      +      +      + 
    8.4900m    1.010m +a     +      +      +      +      +      +      +      + 
    8.5000m    6.041p-a------+------+------+------+------+------+------+------+-
    8.5100m    6.454p a      +      +      +      +      +      +      +      + 
    8.5200m    6.866p a      +      +      +      +      +      +      +      + 
    8.5300m    7.275p a      +      +      +      +      +      +      +      + 
    8.5400m    7.677p a      +      +      +      +      +      +      +      + 
    8.5500m    8.072p a      +      +      +      +      +      +      +      + 
    8.5600m    8.467p a      +      +      +      +      +      +      +      + 
    8.5700m    8.839p a      +      +      +      +      +      +      +      + 
    8.5800m    9.208p a      +      +      +      +      +      +      +      + 
    8.5900m    9.566p a      +      +      +      +      +      +      +      + 
    8.6000m    9.867p-a------+------+------+------+------+------+------+------+-
[...]
    7.9100m  -26.403m +      +      +      +  a   +      +      +      +      + 
    7.9200m  -22.947m +      +      +      +    a +      +      +      +      + 
    7.9300m  -19.340m +      +      +      +      a      +      +      +      + 
    7.9400m  -15.703m +      +      +      +      +  a   +      +      +      + 
    7.9500m  -12.067m +      +      +      +      +     a+      +      +      + 
    7.9600m   -8.431m +      +      +      +      +      +a     +      +      + 
    7.9700m   -4.795m +      +      +      +      +      +   a  +      +      + 
    7.9800m   -1.158m +      +      +      +      +      +     a+      +      + 
    7.9900m  -37.605u +      +      +      +      +      +      a      +      + 
    8.0000m   -6.006p-+------+------+------+------+------+------a------+------+-
    8.0100m   -6.420p +      +      +      +      +      +      a      +      + 
    8.0200m   -6.832p +      +      +      +      +      +      a      +      + 
    8.0300m   -7.241p +      +      +      +      +      +      a      +      + 
    8.0400m   -7.645p +      +      +      +      +      +      a      +      + 
    8.0500m   -8.043p +      +      +      +      +      +      a      +      + 
    8.0600m   -8.423p +      +      +      +      +      +      a      +      + 
    8.0700m   -8.804p +      +      +      +      +      +      a      +      + 
    8.0800m   -9.178p +      +      +      +      +      +      a      +      + 
    8.0900m   -9.487p +      +      +      +      +      +      a      +      + 
    8.1000m   -9.795p-+------+------+------+------+------+------a------+------+-
    8.1100m  -10.103p +      +      +      +      +      +      a      +      + 
    8.1200m  -10.411p +      +      +      +      +      +      a      +      + 
    8.1300m  -10.719p +      +      +      +      +      +      a      +      + 
    8.1400m  -11.028p +      +      +      +      +      +      a      +      + 
    8.1500m  -11.336p +      +      +      +      +      +      a      +      + 
    8.1600m  -11.531p +      +      +      +      +      +      a      +      + 
    8.1700m  -11.726p +      +      +      +      +      +      a      +      + 
    8.1800m  -11.921p +      +      +      +      +      +      a      +      + 
    8.1900m  -12.117p +      +      +      +      +      +      a      +      + 
    8.2000m  -12.255p-+------+------+------+------+------+------a------+------+-
    8.2100m  -12.377p +      +      +      +      +      +      a      +      + 
    8.2200m  -12.439p +      +      +      +      +      +      a      +      + 
    8.2300m  -12.487p +      +      +      +      +      +      a      +      + 
    8.2400m  -12.535p +      +      +      +      +      +      a      +      + 
    8.2500m  -12.583p +      +      +      +      +      +      a      +      + 
    8.2600m  -12.517p +      +      +      +      +      +      a      +      + 
    8.2700m  -12.451p +      +      +      +      +      +      a      +      + 
    8.2800m  -12.385p +      +      +      +      +      +      a      +      + 
    8.2900m  -12.319p +      +      +      +      +      +      a      +      + 
    8.3000m  -12.253p-+------+------+------+------+------+------a------+------+-
    8.3100m  -12.102p +      +      +      +      +      +      a      +      + 
    8.3200m  -11.936p +      +      +      +      +      +      a      +      + 
    8.3300m  -11.727p +      +      +      +      +      +      a      +      + 
    8.3400m  -11.518p +      +      +      +      +      +      a      +      + 
    8.3500m  -11.309p +      +      +      +      +      +      a      +      + 
    8.3600m  -11.014p +      +      +      +      +      +      a      +      + 
    8.3700m  -10.719p +      +      +      +      +      +      a      +      + 
    8.3800m  -10.424p +      +      +      +      +      +      a      +      + 
    8.3900m  -10.129p +      +      +      +      +      +      a      +      + 
    8.4000m   -9.834p-+------+------+------+------+------+------a------+------+-
    8.4100m   -9.495p +      +      +      +      +      +      a      +      + 
    8.4200m   -9.142p +      +      +      +      +      +      a      +      + 
    8.4300m   -8.770p +      +      +      +      +      +      a      +      + 
    8.4400m   -8.390p +      +      +      +      +      +      a      +      + 
    8.4500m   -7.996p +      +      +      +      +      +      a      +      + 
    8.4600m   -7.602p +      +      +      +      +      +      a      +      + 
    8.4700m   -7.198p +      +      +      +      +      +      a      +      + 
    8.4800m   -6.895p +      +      +      +      +      +      a      +      + 
    8.4900m   -6.609p +      +      +      +      +      +      a      +      + 
    8.5000m   -6.322p-+------+------+------+------+------+------a------+------+-
    8.5100m -412.176u +      +      +      +      +      +      a      +      + 
    8.5200m   -2.570m +      +      +      +      +      +    a +      +      + 
    8.5300m   -6.261m +      +      +      +      +      +  a   +      +      + 
    8.5400m   -9.993m +      +      +      +      +      a      +      +      + 
    8.5500m  -13.775m +      +      +      +      +   a  +      +      +      + 
    8.5600m  -17.556m +      +      +      +      + a    +      +      +      + 
    8.5700m  -21.140m +      +      +      +     a+      +      +      +      + 
    8.5800m  -24.688m +      +      +      +   a  +      +      +      +      + 
    8.5900m  -28.140m +      +      +      +a     +      +      +      +      + 
    8.6000m  -31.030m-+------+------+-----a+------+------+------+------+------+-
    8.6100m  -33.920m +      +      +   a  +      +      +      +      +      + 
    8.6200m  -36.810m +      +      + a    +      +      +      +      +      + 
    8.6300m  -39.699m +      +      a      +      +      +      +      +      + 
    8.6400m  -42.589m +      +    a +      +      +      +      +      +      + 
    8.6500m  -45.479m +      +  a   +      +      +      +      +      +      + 
    8.6600m  -47.307m +      + a    +      +      +      +      +      +      + 
    8.6700m  -49.136m +      +a     +      +      +      +      +      +      + 
    8.6800m  -50.964m +     a+      +      +      +      +      +      +      + 
    8.6900m  -52.793m +    a +      +      +      +      +      +      +      + 
    8.7000m  -54.182m-+---a--+------+------+------+------+------+------+------+-
    8.7100m  -55.271m +  a   +      +      +      +      +      +      +      + 
    8.7200m  -55.900m +  a   +      +      +      +      +      +      +      + 
    8.7300m  -56.285m +  a   +      +      +      +      +      +      +      + 
    8.7400m  -56.669m + a    +      +      +      +      +      +      +      + 
    8.7500m  -57.054m + a    +      +      +      +      +      +      +      + 
    8.7600m  -56.363m +  a   +      +      +      +      +      +      +      + 
    8.7700m  -55.672m +  a   +      +      +      +      +      +      +      + 
    8.7800m  -54.981m +   a  +      +      +      +      +      +      +      + 
    8.7900m  -54.290m +   a  +      +      +      +      +      +      +      + 
    8.8000m  -53.599m-+---a--+------+------+------+------+------+------+------+-
    8.8100m  -52.080m +     a+      +      +      +      +      +      +      + 
    8.8200m  -50.405m +      a      +      +      +      +      +      +      + 
    8.8300m  -48.324m +      +a     +      +      +      +      +      +      + 
    8.8400m  -46.242m +      +  a   +      +      +      +      +      +      + 
    8.8500m  -44.160m +      +   a  +      +      +      +      +      +      + 
    8.8600m  -41.262m +      +     a+      +      +      +      +      +      + 
    8.8700m  -38.363m +      +      +a     +      +      +      +      +      + 
    8.8800m  -35.465m +      +      +  a   +      +      +      +      +      + 
    8.8900m  -32.567m +      +      +    a +      +      +      +      +      + 
    8.9000m  -29.669m-+------+------+------a------+------+------+------+------+-
    8.9100m  -26.348m +      +      +      +  a   +      +      +      +      + 
    8.9200m  -22.892m +      +      +      +    a +      +      +      +      + 
    8.9300m  -19.279m +      +      +      +      +a     +      +      +      + 
    8.9400m  -15.590m +      +      +      +      +  a   +      +      +      + 
    8.9500m  -11.798m +      +      +      +      +     a+      +      +      + 
    8.9600m   -8.007m +      +      +      +      +      +a     +      +      + 
    8.9700m   -4.206m +      +      +      +      +      +   a  +      +      + 
    8.9800m   -2.568m +      +      +      +      +      +    a +      +      + 
    8.9900m   -1.284m +      +      +      +      +      +     a+      +      + 
    9.0000m   -6.006p-+------+------+------+------+------+------a------+------+-
    9.0100m   -6.420p +      +      +      +      +      +      a      +      + 
    9.0200m   -6.832p +      +      +      +      +      +      a      +      + 
    9.0300m   -7.242p +      +      +      +      +      +      a      +      + 
    9.0400m   -7.642p +      +      +      +      +      +      a      +      + 
    9.0500m   -8.042p +      +      +      +      +      +      a      +      + 
    9.0600m   -8.428p +      +      +      +      +      +      a      +      + 
    9.0700m   -8.807p +      +      +      +      +      +      a      +      + 
    9.0800m   -9.176p +      +      +      +      +      +      a      +      + 
    9.0900m   -9.501p +      +      +      +      +      +      a      +      + 
    9.1000m   -9.827p-+------+------+------+------+------+------a------+------+-
    9.1100m  -10.153p +      +      +      +      +      +      a      +      + 
    9.1200m  -10.478p +      +      +      +      +      +      a      +      + 
    9.1300m  -10.804p +      +      +      +      +      +      a      +      + 
    9.1400m  -11.075p +      +      +      +      +      +      a      +      + 
    9.1500m  -11.336p +      +      +      +      +      +      a      +      + 
    9.1600m  -11.546p +      +      +      +      +      +      a      +      + 
    9.1700m  -11.756p +      +      +      +      +      +      a      +      + 
    9.1800m  -11.964p +      +      +      +      +      +      a      +      + 
    9.1900m  -12.117p +      +      +      +      +      +      a      +      + 
    9.2000m  -12.259p-+------+------+------+------+------+------a------+------+-
    9.2100m  -12.324p +      +      +      +      +      +      a      +      + 
    9.2200m  -12.389p +      +      +      +      +      +      a      +      + 
    9.2300m  -12.454p +      +      +      +      +      +      a      +      + 
    9.2400m  -12.518p +      +      +      +      +      +      a      +      + 
    9.2500m  -12.583p +      +      +      +      +      +      a      +      + 
    9.2600m  -12.517p +      +      +      +      +      +      a      +      + 
    9.2700m  -12.451p +      +      +      +      +      +      a      +      + 
    9.2800m  -12.385p +      +      +      +      +      +      a      +      + 
    9.2900m  -12.319p +      +      +      +      +      +      a      +      + 
    9.3000m  -12.253p-+------+------+------+------+------+------a------+------+-
    9.3100m  -12.103p +      +      +      +      +      +      a      +      + 
    9.3200m  -11.936p +      +      +      +      +      +      a      +      + 
    9.3300m  -11.727p +      +      +      +      +      +      a      +      + 
    9.3400m  -11.519p +      +      +      +      +      +      a      +      + 
    9.3500m  -11.310p +      +      +      +      +      +      a      +      + 
    9.3600m  -11.015p +      +      +      +      +      +      a      +      + 
    9.3700m  -10.720p +      +      +      +      +      +      a      +      + 
    9.3800m  -10.425p +      +      +      +      +      +      a      +      + 
    9.3900m  -10.130p +      +      +      +      +      +      a      +      + 
    9.4000m   -9.835p-+------+------+------+------+------+------a------+------+-
    9.4100m   -9.496p +      +      +      +      +      +      a      +      + 
    9.4200m   -9.142p +      +      +      +      +      +      a      +      + 
    9.4300m   -8.771p +      +      +      +      +      +      a      +      + 
    9.4400m   -8.390p +      +      +      +      +      +      a      +      + 
    9.4500m   -7.996p +      +      +      +      +      +      a      +      + 
    9.4600m   -7.603p +      +      +      +      +      +      a      +      + 
    9.4700m   -7.199p +      +      +      +      +      +      a      +      + 
    9.4800m   -6.875p +      +      +      +      +      +      a      +      + 
    9.4900m   -6.565p +      +      +      +      +      +      a      +      + 
    9.5000m   -6.255p-+------+------+------+------+------+------a------+------+-
    9.5100m -391.794u +      +      +      +      +      +      a      +      + 
    9.5200m   -2.525m +      +      +      +      +      +    a +      +      + 
    9.5300m   -6.207m +      +      +      +      +      +  a   +      +      + 
    9.5400m   -9.941m +      +      +      +      +      a      +      +      + 
    9.5500m  -13.727m +      +      +      +      +   a  +      +      +      + 
    9.5600m  -17.512m +      +      +      +      + a    +      +      +      + 
    9.5700m  -21.086m +      +      +      +     a+      +      +      +      + 
    9.5800m  -24.646m +      +      +      +   a  +      +      +      +      + 
    9.5900m  -28.031m +      +      +      +a     +      +      +      +      + 
    9.6000m  -30.931m-+------+------+-----a+------+------+------+------+------+-
    9.6100m  -33.830m +      +      +   a  +      +      +      +      +      + 
    9.6200m  -36.730m +      +      + a    +      +      +      +      +      + 
    9.6300m  -39.629m +      +      a      +      +      +      +      +      + 
    9.6400m  -42.528m +      +    a +      +      +      +      +      +      + 
    9.6500m  -45.428m +      +  a   +      +      +      +      +      +      + 
    9.6600m  -47.259m +      + a    +      +      +      +      +      +      + 
    9.6700m  -49.090m +      +a     +      +      +      +      +      +      + 
    9.6800m  -50.922m +     a+      +      +      +      +      +      +      + 
    9.6900m  -52.753m +    a +      +      +      +      +      +      +      + 
    9.7000m  -54.129m-+---a--+------+------+------+------+------+------+------+-
    9.7100m  -55.224m +  a   +      +      +      +      +      +      +      + 
    9.7200m  -55.842m +  a   +      +      +      +      +      +      +      + 
    9.7300m  -56.229m +  a   +      +      +      +      +      +      +      + 
    9.7400m  -56.617m + a    +      +      +      +      +      +      +      + 
    9.7500m  -57.004m + a    +      +      +      +      +      +      +      + 
    9.7600m  -56.313m +  a   +      +      +      +      +      +      +      + 
    9.7700m  -55.622m +  a   +      +      +      +      +      +      +      + 
    9.7800m  -54.931m +   a  +      +      +      +      +      +      +      + 
    9.7900m  -54.240m +   a  +      +      +      +      +      +      +      + 
    9.8000m  -53.549m-+----a-+------+------+------+------+------+------+------+-
    9.8100m  -52.030m +     a+      +      +      +      +      +      +      + 
    9.8200m  -50.355m +      a      +      +      +      +      +      +      + 
    9.8300m  -48.274m +      +a     +      +      +      +      +      +      + 
    9.8400m  -46.192m +      +  a   +      +      +      +      +      +      + 
    9.8500m  -44.110m +      +   a  +      +      +      +      +      +      + 
    9.8600m  -41.212m +      +     a+      +      +      +      +      +      + 
    9.8700m  -38.314m +      +      +a     +      +      +      +      +      + 
    9.8800m  -35.416m +      +      +  a   +      +      +      +      +      + 
    9.8900m  -32.517m +      +      +    a +      +      +      +      +      + 
    9.9000m  -29.619m-+------+------+------a------+------+------+------+------+-
    9.9100m  -26.299m +      +      +      +  a   +      +      +      +      + 
    9.9200m  -22.843m +      +      +      +    a +      +      +      +      + 
    9.9300m  -19.230m +      +      +      +      +a     +      +      +      + 
    9.9400m  -15.541m +      +      +      +      +  a   +      +      +      + 
    9.9500m  -11.750m +      +      +      +      +     a+      +      +      + 
    9.9600m   -7.959m +      +      +      +      +      +a     +      +      + 
    9.9700m   -4.160m +      +      +      +      +      +   a  +      +      + 
    9.9800m   -2.535m +      +      +      +      +      +    a +      +      + 
    9.9900m   -1.268m +      +      +      +      +      +     a+      +      + 
   10.0000m   -6.007p-+------+------+------+------+------+------a------+------+-
                      +             +             +             +             + 

b

   v=  1.1618E+01  from=  0.0000E+00     to=  1.0000E-02
 fourier components of transient response v(4)
 dc component = -0.0355583
 
 harmonic frequency fourier   normalized phase     normalized  
 no       (hz)      component component  (deg)     phase (deg) 
 1        1.00000k  5.57223   1.00000    880.029m  0.          
 2        2.00000k  5.17735m  929.134u   88.8274   87.9473     
 3        3.00000k  316.334m  56.7697m   -176.599  -177.479    
 4        4.00000k  4.42671m  794.422u   90.8065   89.9265     
 5        5.00000k  177.889m  31.9242m   -175.134  -176.014    
 6        6.00000k  4.90828m  880.846u   86.1871   85.3071     
 7        7.00000k  118.148m  21.2030m   -173.068  -173.948    
 8        8.00000k  4.23578m  760.159u   70.1354   69.2554     
 9        9.00000k  83.8160m  15.0417m   -171.330  -172.210    
 
 total harmonic distortion =   7.01472  percent

          ***** job concluded
1****** HSPICE -- D-2010.03-SP1 32-BIT (May 26 2010) winnt ******               
 ******  
 ************6-3

  ******  job statistics summary tnom=  25.000 temp=  25.000 *****

  ******  HSPICE Threads Information  ******

  Command Line Threads Count                  :     1
  Available CPU Count                         :     8
  Actual Model Evaluation(Load) Threads Count :     1
  Actual Solver Threads Count                 :     1


  ******  Circuit Statistics  ******
  # nodes       =       8 # elements   =      11
  # resistors   =       3 # capacitors =       2 # inductors   =       0
  # mutual_inds =       0 # vccs       =       0 # vcvs        =       0
  # cccs        =       0 # ccvs       =       0 # volt_srcs   =       4
  # curr_srcs   =       0 # diodes     =       0 # bjts        =       2
  # jfets       =       0 # mosfets    =       0 # U elements  =       0
  # T elements  =       0 # W elements =       0 # B elements  =       0
  # S elements  =       0 # P elements =       0 # va device   =       0


  ******  Runtime Statistics (seconds)  ******

  analysis           time    # points   tot. iter  conv.iter
  op point           0.01           1           4
  transient          0.05        1001        1587         431 rev=        57
  readin             0.04
  errchk             0.01
  setup              0.01
  output             0.00


           total memory used          167  kbytes
           total cpu time            0.13 seconds
           total elapsed time        0.38 seconds
           job started at     23:59:37 05/17/2017
           job ended   at     23:59:38 05/17/2017


  lic: Release hspice token(s) 
